geometry optimzed in LAMMPS
_audit_creation_date              2020-11-30 
_audit_creation_method            'lammps2cif' 
_symmetry_space_group_name_H-M    'P1' 
_symmetry_Int_Tables_number       1 
_symmetry_cell_setting            triclinic 
loop_ 
_symmetry_equiv_pos_as_xyz 
  x,y,z 
_cell_length_a                    49.45694918 
_cell_length_b                    49.39139577250815 
_cell_length_c                    49.5429307144007 
_cell_angle_alpha                 89.91959136523687 
_cell_angle_beta                  89.97371590655428 
_cell_angle_gamma                 90.04213018984952 
loop_ 
_atom_site_label 
_atom_site_type_symbol 
_atom_site_fract_x 
_atom_site_fract_y 
_atom_site_fract_z 
_atom_site_charge 
In1        In  0.86476510  0.13520838  0.00015759     1.36900
C2          C  0.86469267  0.10077858  0.04094406     0.77400
O3          O  0.88898604  0.16044225  0.02883395    -0.61000
O4          O  0.86247671  0.18110526  0.00249494    -0.51900
C5          C  0.89917954  0.13117020  0.95935351     0.70100
O6          O  0.89940027  0.11511977  0.97917975    -0.46800
C7          C  0.81811275  0.11823778  0.97925548     0.74800
O8          O  0.88433658  0.10288232  0.02477539    -0.58600
O9          O  0.81949508  0.13882014  0.99439618    -0.48700
O10         O  0.84562735  0.11723796  0.03678492    -0.55100
C11         C  0.88055354  0.18293778  0.02042244     0.85000
O12         O  0.88104731  0.14910190  0.96041710    -0.57000
O13         O  0.84063306  0.10763717  0.97401154    -0.60300
In14       In  0.85874393  0.97754533  0.15802685     1.36900
C15         C  0.86139812  0.01706366  0.12211003     0.77400
O16         O  0.83353480  0.94756910  0.13510413    -0.61000
O17         O  0.81305669  0.97344057  0.16217896    -0.51900
C18         C  0.89349419  0.93700196  0.15685152     0.70100
O19         O  0.89032415  0.95321810  0.13741866    -0.46800
C20         C  0.87701818  0.00113601  0.20309350     0.74800
O21         O  0.87889988  0.99860164  0.12369322    -0.58600
O22         O  0.85682717  0.98535935  0.20307121    -0.48700
O23         O  0.84240025  0.01521039  0.13904514    -0.55100
C24         C  0.81113153  0.95507592  0.14450713     0.85000
O25         O  0.87800583  0.94107883  0.17672287    -0.57000
O26         O  0.88652665  0.00576139  0.18000821    -0.60300
In27       In  0.02205668  0.13300463  0.84174602     1.36900
C28         C  0.06503045  0.10122437  0.84267135     0.77400
O29         O  0.00162974  0.09997101  0.81955357    -0.61000
O30         O  0.00747111  0.13684220  0.79834441    -0.51900
C31         C  0.98120131  0.13128981  0.87647676     0.70100
O32         O  0.00078679  0.11502396  0.87731611    -0.46800
C33         C  0.04365000  0.18031000  0.85564041     0.74800
O34         O  0.04730064  0.10146781  0.86098720    -0.58600
O35         O  0.02928006  0.17780080  0.83466543    -0.48700
O36         O  0.06116259  0.11813603  0.82386571    -0.55100
C37         C  0.99854873  0.11281211  0.79783028     0.85000
O38         O  0.98252592  0.14841546  0.85763319    -0.57000
O39         O  0.04751629  0.15859987  0.86833571    -0.60300
In40       In  0.02119686  0.82477936  0.15920621     1.36900
C41         C  0.06142704  0.82698952  0.12388977     0.77400
O42         O  0.04239610  0.85717847  0.18208759    -0.61000
O43         O  0.03362299  0.82076211  0.20311452    -0.51900
C44         C  0.97901589  0.85755309  0.15901688     0.70100
O45         O  0.99717256  0.85800575  0.14109491    -0.46800
C46         C  0.99996689  0.77699171  0.14459082     0.74800
O47         O  0.04042949  0.84125170  0.12184521    -0.58600
O48         O  0.01701790  0.77902074  0.16349747    -0.48700
O49         O  0.06192674  0.81177766  0.14433401    -0.55100
C50         C  0.04342717  0.84443553  0.20406376     0.85000
O51         O  0.98226592  0.83975098  0.17712158    -0.57000
O52         O  0.99301947  0.79935143  0.13461261    -0.60300
In53       In  0.17926460  0.82229370  0.00131140     1.36900
C54         C  0.17855468  0.85597017  0.95989401     0.77400
O55         O  0.20338773  0.85020889  0.02742975    -0.61000
O56         O  0.22447595  0.81883838  0.00733965    -0.51900
C57         C  0.14388350  0.82429145  0.04142859     0.70100
O58         O  0.14376600  0.84084503  0.02201483    -0.46800
C59         C  0.16378206  0.77525412  0.97992903     0.74800
O60         O  0.16130970  0.85670162  0.97866459    -0.58600
O61         O  0.18292146  0.77678588  0.99678785    -0.48700
O62         O  0.19593158  0.83740071  0.96211051    -0.55100
C63         C  0.22589398  0.83955153  0.02223276     0.85000
O64         O  0.16247911  0.80682557  0.04038066    -0.57000
O65         O  0.15366325  0.79774356  0.97363007    -0.60300
In66       In  0.18096861  0.97691887  0.84015928     1.36900
C67         C  0.14665312  0.01776989  0.84163276     0.77400
O68         O  0.20432388  0.00755221  0.86359270    -0.61000
O69         O  0.22664095  0.98204297  0.83764089    -0.51900
C70         C  0.17937861  0.93739909  0.87633690     0.70100
O71         O  0.16429104  0.95786981  0.87720254    -0.46800
C72         C  0.16185684  0.95458898  0.79509402     0.74800
O73         O  0.14681674  0.99887302  0.85879916    -0.58600
O74         O  0.18505277  0.96543994  0.79570614    -0.48700
O75         O  0.16450848  0.01580860  0.82340257    -0.55100
C76         C  0.22726090  0.00052495  0.85530015     0.85000
O77         O  0.19547553  0.93702742  0.85658229    -0.57000
O78         O  0.14973507  0.95434504  0.81738653    -0.60300
C79         C  0.60516360  0.41656490  0.66267937     0.86300
C80         C  0.58934990  0.44317692  0.66710697    -0.53900
C81         C  0.56323620  0.43966486  0.67539390     0.09300
C82         C  0.55535267  0.40984431  0.67947582     0.20200
C83         C  0.60290656  0.40154539  0.68985134    -0.54600
C84         C  0.57688046  0.39805501  0.69854952     0.09400
C85         C  0.58692795  0.40026646  0.64340673    -0.54200
C86         C  0.56102520  0.39637472  0.65204007     0.09900
H87         H  0.59697229  0.46328419  0.66372319     0.14500
H88         H  0.53432652  0.40746481  0.68681764     0.00200
H89         H  0.62026089  0.39412558  0.70104964     0.14800
H90         H  0.59440605  0.39185698  0.62458653     0.14500
C91         C  0.68440411  0.41022251  0.58056767     0.86300
C92         C  0.71151474  0.39481648  0.57911522    -0.53900
C93         C  0.71988237  0.38956522  0.55331672     0.09300
C94         C  0.70046402  0.39976088  0.53146544     0.20200
C95         C  0.68904264  0.43581365  0.56283802    -0.54600
C96         C  0.69716256  0.43014744  0.53699480     0.09400
C97         C  0.66445882  0.39316891  0.56387386    -0.54200
C98         C  0.67304836  0.38740114  0.53856376     0.09900
H99         H  0.72326945  0.38926547  0.59677199     0.14500
H100        H  0.70729366  0.39491160  0.51067486     0.00200
H101        H  0.68520027  0.45642625  0.56911360     0.14800
H102        H  0.64525451  0.38578118  0.57163253     0.14500
C103        C  0.68561390  0.55580916  0.43503874     0.86300
C104        C  0.69278770  0.53857415  0.46007885    -0.53900
C105        C  0.70176596  0.51307305  0.45425680     0.09300
C106        C  0.70366899  0.50733936  0.42378771     0.20200
C107        C  0.71216562  0.55574366  0.41827407    -0.54600
C108        C  0.72144583  0.53018090  0.41228060     0.09400
C109        C  0.66602832  0.53807375  0.41860562    -0.54200
C110        C  0.67535208  0.51300575  0.41287943     0.09900
H111        H  0.68909798  0.54526720  0.48061161     0.14500
H112        H  0.71106278  0.48665380  0.41903117     0.00200
H113        H  0.72292189  0.57361071  0.41168513     0.14800
H114        H  0.64617844  0.54486225  0.41202880     0.14500
C115        C  0.60017455  0.63377080  0.43295237     0.86300
C116        C  0.60047344  0.66036057  0.41629310    -0.53900
C117        C  0.57511825  0.66930716  0.40908207     0.09300
C118        C  0.55212327  0.65080925  0.41902841     0.20200
C119        C  0.58148463  0.64047257  0.45694679    -0.54600
C120        C  0.55603234  0.64859488  0.44977205     0.09400
C121        C  0.58407884  0.61388060  0.41549167    -0.54200
C122        C  0.55924943  0.62276449  0.40823963     0.09900
H123        H  0.61868092  0.67119771  0.41074814     0.14500
H124        H  0.53170684  0.65788359  0.41306739     0.00200
H125        H  0.58753565  0.63788481  0.47784104     0.14800
H126        H  0.59170602  0.59416546  0.40940984     0.14500
C127        C  0.45386098  0.64274740  0.57674068     0.86300
C128        C  0.47895864  0.64514448  0.55822139    -0.53900
C129        C  0.47332458  0.65401689  0.53264911     0.09300
C130        C  0.44311501  0.65934042  0.52770856     0.20200
C131        C  0.44041556  0.67081398  0.57549058    -0.54600
C132        C  0.43470361  0.67945303  0.54982575     0.09400
C133        C  0.43489487  0.62402527  0.56061509    -0.54200
C134        C  0.42918547  0.63278298  0.53533515     0.09900
H135        H  0.49906113  0.63843617  0.56334857     0.14500
H136        H  0.43845061  0.66625686  0.50688315     0.00200
H137        H  0.43504573  0.68231452  0.59336349     0.14800
H138        H  0.42724716  0.60485250  0.56827093     0.14500
C139        C  0.45707586  0.56387285  0.65996045     0.86300
C140        C  0.44194217  0.56296692  0.68708793    -0.53900
C141        C  0.43831307  0.53740665  0.69693473     0.09300
C142        C  0.45064610  0.51500275  0.67935947     0.20200
C143        C  0.48388207  0.54868279  0.66548739    -0.54600
C144        C  0.48050307  0.52298736  0.67551569     0.09400
C145        C  0.44141023  0.54448799  0.64140716    -0.54200
C146        C  0.43803315  0.51906192  0.65141854     0.09900
H147        H  0.43436501  0.58083147  0.69734559     0.14500
H148        H  0.44756641  0.49426755  0.68742462     0.00200
H149        H  0.50381304  0.55652610  0.66101743     0.14800
H150        H  0.43312767  0.55068503  0.62205639     0.14500
C151        C  0.44236292  0.53679551  0.33756974     0.86300
C152        C  0.46047210  0.55372174  0.35625703    -0.53900
C153        C  0.48570327  0.55822305  0.34662350     0.09300
C154        C  0.49130779  0.54492956  0.31944167     0.20200
C155        C  0.44344376  0.55140028  0.31003739    -0.54600
C156        C  0.46912416  0.55575952  0.30078762     0.09400
C157        C  0.45896574  0.51039910  0.33333781    -0.54200
C158        C  0.48481016  0.51482883  0.32409533     0.09900
H159        H  0.45378548  0.56176414  0.37555930     0.14500
H160        H  0.51208471  0.54876108  0.31179473     0.00200
H161        H  0.42561730  0.55810025  0.29914287     0.14800
H162        H  0.45220099  0.49039230  0.33914757     0.14500
C163        C  0.36162107  0.54004453  0.41948339     0.86300
C164        C  0.35680133  0.51505502  0.43788093    -0.53900
C165        C  0.34726620  0.52128986  0.46302782     0.09300
C166        C  0.34343626  0.55170057  0.46765819     0.20200
C167        C  0.33438647  0.55532572  0.41946560    -0.54600
C168        C  0.32509704  0.56138059  0.44475220     0.09400
C169        C  0.38054180  0.55802671  0.43652986    -0.54200
C170        C  0.37108480  0.56415007  0.46160277     0.09900
H171        H  0.36242272  0.49454567  0.43322620     0.14500
H172        H  0.33550553  0.55666092  0.48804093     0.00200
H173        H  0.32349656  0.56073349  0.40121798     0.14800
H174        H  0.39968848  0.56573924  0.42899919     0.14500
C175        C  0.59349512  0.30977958  0.42133155     0.86300
C176        C  0.60772873  0.28212516  0.42394584    -0.53900
C177        C  0.61091073  0.27363913  0.45013688     0.09300
C178        C  0.59976138  0.29354971  0.47130956     0.20200
C179        C  0.56674504  0.30620690  0.43731015    -0.54600
C180        C  0.57002217  0.29852357  0.46372041     0.09400
C181        C  0.61015671  0.32904378  0.43915686    -0.54200
C182        C  0.61370438  0.32040007  0.46490153     0.09900
H183        H  0.61450632  0.27035498  0.40674072     0.14500
H184        H  0.60282533  0.28703567  0.49255807     0.00200
H185        H  0.54689144  0.31035364  0.42927886     0.14800
H186        H  0.61840881  0.34817246  0.43204207     0.14500
C187        C  0.59299515  0.39221241  0.34077300     0.86300
C188        C  0.56693732  0.40909143  0.33596100    -0.53900
C189        C  0.57146817  0.43491427  0.32693121     0.09300
C190        C  0.60163003  0.44146196  0.32298816     0.20200
C191        C  0.60832053  0.39351455  0.31359696    -0.54600
C192        C  0.61283710  0.41930242  0.30447605     0.09400
C193        C  0.60964826  0.41031538  0.35992355    -0.54200
C194        C  0.61438646  0.43582034  0.35058286     0.09900
H195        H  0.54668801  0.40285544  0.34096939     0.14500
H196        H  0.60541652  0.46214497  0.31511223     0.00200
H197        H  0.61500974  0.37570488  0.30265560     0.14800
H198        H  0.61720932  0.40341729  0.37934550     0.14500
C199        C  0.44362828  0.32055872  0.56731036     0.86300
C200        C  0.46085593  0.31525337  0.54171009    -0.53900
C201        C  0.48679900  0.30684935  0.54691104     0.09300
C202        C  0.49311629  0.30442277  0.57726631     0.20200
C203        C  0.44533632  0.29382473  0.58323614    -0.54600
C204        C  0.47115310  0.28554390  0.58881313     0.09400
C205        C  0.46085445  0.34072617  0.58361590    -0.54200
C206        C  0.48638679  0.33229831  0.58883859     0.09900
H207        H  0.45416063  0.31799566  0.52119811     0.14500
H208        H  0.51413258  0.29805389  0.58177075     0.00200
H209        H  0.42760727  0.28287639  0.59022234     0.14800
H210        H  0.45336588  0.36016624  0.59065693     0.14500
C211        C  0.36143824  0.40000449  0.57114012     0.86300
C212        C  0.33419701  0.40150814  0.58625667    -0.53900
C213        C  0.32560990  0.42741953  0.59146025     0.09300
C214        C  0.34505290  0.44937418  0.58089598     0.20200
C215        C  0.35694466  0.41734492  0.54550723    -0.54600
C216        C  0.34859889  0.44327445  0.55059076     0.09400
C217        C  0.38109948  0.41705808  0.58812014    -0.54200
C218        C  0.37247477  0.44247675  0.59345142     0.09900
H219        H  0.32317286  0.38367436  0.59281391     0.14500
H220        H  0.33812355  0.47027103  0.58520698     0.00200
H221        H  0.36112147  0.41072426  0.52513409     0.14800
H222        H  0.40055213  0.40967568  0.59520490     0.14500
In223      In  0.68134819  0.47879696  0.15937125     1.36900
C224        C  0.64748920  0.52014718  0.15726880     0.77400
O225        O  0.65011495  0.45773079  0.18382978    -0.61000
O226        O  0.68694259  0.46631225  0.20368929    -0.51900
C227        C  0.67841291  0.43794797  0.12486712     0.70100
O228        O  0.66186179  0.45725983  0.12509458    -0.46800
C229        C  0.72744998  0.50188910  0.14237842     0.74800
O230        O  0.64809969  0.50152115  0.13994440    -0.58600
O231        O  0.72653012  0.48747958  0.16351787    -0.48700
O232        O  0.66498174  0.51796143  0.17579356    -0.55100
C233        C  0.66325345  0.45670288  0.20550930     0.85000
O234        O  0.69644793  0.43929610  0.14282121    -0.57000
O235        O  0.70490021  0.50498698  0.13112094    -0.60300
In236      In  0.52112660  0.63369274  0.15868530     1.36900
C237        C  0.47869751  0.63266112  0.12596284     0.77400
O238        O  0.50303300  0.60026042  0.18238365    -0.61000
O239        O  0.50970055  0.63728808  0.20311993    -0.51900
C240        C  0.56414923  0.60201627  0.15676807     0.70100
O241        O  0.54519128  0.60089762  0.13973098    -0.46800
C242        C  0.54128757  0.68068410  0.14187167     0.74800
O243        O  0.49835206  0.61655031  0.12399133    -0.58600
O244        O  0.52834308  0.67861813  0.16383724    -0.48700
O245        O  0.48042464  0.64905427  0.14537332    -0.55100
C246        C  0.50207112  0.61283217  0.20442081     0.85000
O247        O  0.56152719  0.62032808  0.17439993    -0.57000
O248        O  0.54509943  0.65856459  0.12988912    -0.60300
In249      In  0.67761859  0.32127504  0.00151085     1.36900
C250        C  0.67540200  0.35629304  0.04186493     0.77400
O251        O  0.64628349  0.29761088  0.02361431    -0.61000
O252        O  0.68158801  0.27652890  0.01155508    -0.51900
C253        C  0.64483856  0.32337846  0.95960623     0.70100
O254        O  0.64554213  0.34137383  0.97765207    -0.46800
C255        C  0.72480308  0.33693908  0.97996342     0.74800
O256        O  0.65908169  0.35669172  0.02237123    -0.58600
O257        O  0.72344775  0.31833191  0.99748983    -0.48700
O258        O  0.69258957  0.33747329  0.04090068    -0.55100
C259        C  0.65856225  0.27533513  0.02267512     0.85000
O260        O  0.66150511  0.30421174  0.96284065    -0.57000
O261        O  0.70214654  0.34590712  0.97274719    -0.60300
In262      In  0.36294518  0.63526148  0.00195343     1.36900
C263        C  0.36709892  0.60329440  0.95922052     0.77400
O264        O  0.33980972  0.60215573  0.02112704    -0.61000
O265        O  0.31840843  0.63848652  0.01308863    -0.51900
C266        C  0.39557026  0.63311209  0.04420096     0.70100
O267        O  0.39698017  0.61733610  0.02433737    -0.46800
C268        C  0.37979875  0.68182936  0.98088775     0.74800
O269        O  0.38336543  0.60277627  0.97874137    -0.58600
O270        O  0.35602020  0.67939562  0.99013006    -0.48700
O271        O  0.34884664  0.62108429  0.96111263    -0.55100
C272        C  0.31750410  0.61431636  0.02164676     0.85000
O273        O  0.37649318  0.65011271  0.04292992    -0.57000
O274        O  0.39383741  0.66072744  0.98261045    -0.60300
In275      In  0.36540959  0.48191091  0.84024561     1.36900
C276        C  0.39888760  0.44033760  0.84200902     0.77400
O277        O  0.34165799  0.45378891  0.86622711    -0.61000
O278        O  0.31993552  0.47579576  0.83665914    -0.51900
C279        C  0.36705380  0.52238124  0.87528484     0.70100
O280        O  0.38302506  0.50252220  0.87609559    -0.46800
C281        C  0.38457657  0.50414416  0.79496124     0.74800
O282        O  0.39929437  0.45950888  0.85877712    -0.58600
O283        O  0.36261851  0.49092609  0.79522589    -0.48700
O284        O  0.38097131  0.44242712  0.82391899    -0.55100
C285        C  0.31898960  0.45914200  0.85610367     0.85000
O286        O  0.35009123  0.52153045  0.85626519    -0.57000
O287        O  0.39536893  0.50671347  0.81777282    -0.60300
In288      In  0.52214356  0.32418244  0.84236428     1.36900
C289        C  0.47994763  0.35659834  0.84360586     0.77400
O290        O  0.54267952  0.35712319  0.81953540    -0.61000
O291        O  0.53353719  0.32125119  0.79797607    -0.51900
C292        C  0.56350259  0.32442882  0.87634135     0.70100
O293        O  0.54457700  0.34147233  0.87733474    -0.46800
C294        C  0.49899621  0.27782915  0.85804860     0.74800
O295        O  0.49840821  0.35707961  0.86122442    -0.58600
O296        O  0.51455686  0.27894861  0.83774293    -0.48700
O297        O  0.48279522  0.33871714  0.82558217    -0.55100
C298        C  0.54299765  0.34509404  0.79718527     0.85000
O299        O  0.56146109  0.30738633  0.85751447    -0.57000
O300        O  0.49481080  0.30038053  0.86904450    -0.60300
C301        C  0.10078497  0.54311791  0.16052737     0.86300
C302        C  0.10151617  0.55762136  0.18796143    -0.53900
C303        C  0.07651399  0.56411620  0.19765584     0.09300
C304        C  0.05293140  0.55524442  0.17961988     0.20200
C305        C  0.08208526  0.51833982  0.16526673    -0.54600
C306        C  0.05711260  0.52483528  0.17520061     0.09400
C307        C  0.08370769  0.56176207  0.14227821    -0.54200
C308        C  0.05868822  0.56789970  0.15198901     0.09900
H309        H  0.12007262  0.56256508  0.19858351     0.14500
H310        H  0.03273652  0.56019526  0.18807769     0.00200
H311        H  0.08654886  0.49767222  0.15998449     0.14800
H312        H  0.09105775  0.56946925  0.12309021     0.14500
C313        C  0.18207309  0.54078042  0.07879995     0.86300
C314        C  0.18615570  0.51445273  0.06234758    -0.53900
C315        C  0.19585665  0.51857934  0.03674323     0.09300
C316        C  0.20071469  0.54859124  0.02997339     0.20200
C317        C  0.20973586  0.55499331  0.07798500    -0.54600
C318        C  0.21928095  0.55926071  0.05247484     0.09400
C319        C  0.16384564  0.55807286  0.06062774    -0.54200
C320        C  0.17331437  0.56235593  0.03513968     0.09900
H321        H  0.18118052  0.49432246  0.06939999     0.14500
H322        H  0.20866226  0.55173048  0.00933269     0.00200
H323        H  0.22055943  0.56154757  0.09588553     0.14800
H324        H  0.14494597  0.56664922  0.06779891     0.14500
C325        C  0.18541347  0.39520863  0.92867523     0.86300
C326        C  0.21290361  0.39784380  0.91424589    -0.53900
C327        C  0.22145669  0.42407237  0.91083332     0.09300
C328        C  0.20207813  0.44524786  0.92299692     0.20200
C329        C  0.18909954  0.41069141  0.95552091    -0.54600
C330        C  0.19745881  0.43688146  0.95253236     0.09400
C331        C  0.16624942  0.41363435  0.91232963    -0.54200
C332        C  0.17505290  0.43948319  0.90934442     0.09900
H333        H  0.22385355  0.38059709  0.90620574     0.14500
H334        H  0.20883711  0.46655728  0.92065495     0.00200
H335        H  0.18436811  0.40297784  0.97528467     0.14800
H336        H  0.14714181  0.40684299  0.90386473     0.14500
C337        C  0.95807120  0.39877703  0.15612598     0.86300
C338        C  0.98211422  0.41650086  0.16494083    -0.53900
C339        C  0.97491141  0.44167830  0.17365854     0.09300
C340        C  0.94407553  0.44630464  0.17427320     0.20200
C341        C  0.94007944  0.39772216  0.18160508    -0.54600
C342        C  0.93258132  0.42267558  0.19088513     0.09400
C343        C  0.94232223  0.41636636  0.13585744    -0.54200
C344        C  0.93414649  0.44105886  0.14524896     0.09900
H345        H  0.00307786  0.41029150  0.16358625     0.14500
H346        H  0.93867042  0.46614411  0.18303775     0.00200
H347        H  0.93412820  0.37919004  0.19177449     0.14800
H348        H  0.93890341  0.40948994  0.11541300     0.14500
C349        C  0.95924961  0.31721330  0.07480708     0.86300
C350        C  0.94339911  0.29035003  0.07356478    -0.53900
C351        C  0.93707896  0.28218893  0.04786382     0.09300
C352        C  0.94813203  0.30124517  0.02576215     0.20200
C353        C  0.98432942  0.31165414  0.05719606    -0.54600
C354        C  0.97860388  0.30422499  0.03130548     0.09400
C355        C  0.94230490  0.33730189  0.05828521    -0.54200
C356        C  0.93626635  0.32916357  0.03269620     0.09900
H357        H  0.93766788  0.27867558  0.09118241     0.14500
H358        H  0.94380420  0.29391342  0.00516513     0.00200
H359        H  0.00497897  0.31395351  0.06418145     0.14800
H360        H  0.93610855  0.35677198  0.06635683     0.14500
C361        C  0.10262697  0.31690436  0.92447889     0.86300
C362        C  0.08608336  0.31288014  0.95076830    -0.53900
C363        C  0.06001544  0.30435807  0.94662128     0.09300
C364        C  0.05295621  0.30048589  0.91667697     0.20200
C365        C  0.10055057  0.28963744  0.90980138    -0.54600
C366        C  0.07458016  0.28121032  0.90535408     0.09400
C367        C  0.08510306  0.33649681  0.90780524    -0.54200
C368        C  0.05940877  0.32779457  0.90371536     0.09900
H369        H  0.09333099  0.31750819  0.97084473     0.14500
H370        H  0.03180639  0.29390266  0.91315547     0.00200
H371        H  0.11807416  0.27836334  0.90289460     0.14800
H372        H  0.09231337  0.35580935  0.90009079     0.14500
C373        C  0.85642460  0.41534309  0.91764546     0.86300
C374        C  0.87681912  0.39932374  0.93474305    -0.53900
C375        C  0.86876897  0.39323354  0.96042835     0.09300
C376        C  0.84056403  0.40467217  0.96699253     0.20200
C377        C  0.82998573  0.39887020  0.91931405    -0.54600
C378        C  0.82174440  0.39321066  0.94512318     0.09400
C379        C  0.85076979  0.44067456  0.93502900    -0.54200
C380        C  0.84295367  0.43518136  0.96100445     0.09900
H381        H  0.89657427  0.39405758  0.92682913     0.14500
H382        H  0.83298583  0.40000932  0.98740586     0.00200
H383        H  0.81921802  0.39171650  0.90161833     0.14800
H384        H  0.85326470  0.46135041  0.92861069     0.14500
C385        C  0.93718794  0.41377573  0.83582447     0.86300
C386        C  0.95483701  0.43967857  0.83367151    -0.53900
C387        C  0.98057807  0.43513048  0.82470090     0.09300
C388        C  0.98643587  0.40525603  0.81864891     0.20200
C389        C  0.93853928  0.40099654  0.80751994    -0.54600
C390        C  0.96434692  0.39622196  0.79868334     0.09400
C391        C  0.95412990  0.39475870  0.85372285    -0.54200
C392        C  0.98004420  0.39054695  0.84528411     0.09900
H393        H  0.94879954  0.45958802  0.84034913     0.14500
H394        H  0.00718316  0.40217432  0.81079721     0.00200
H395        H  0.92076105  0.39528570  0.79601116     0.14800
H396        H  0.94566213  0.38515257  0.87147181     0.14500
C397        C  0.85878836  0.56236163  0.06253158     0.86300
C398        C  0.85092678  0.54560488  0.03748403    -0.53900
C399        C  0.84350572  0.51949039  0.04302223     0.09300
C400        C  0.84213185  0.51317677  0.07341551     0.20200
C401        C  0.83297401  0.56126441  0.08009977    -0.54600
C402        C  0.82438861  0.53549363  0.08594874     0.09400
C403        C  0.87940126  0.54460302  0.07763097    -0.54200
C404        C  0.87064794  0.51919526  0.08381465     0.09900
H405        H  0.85103443  0.55302226  0.01696759     0.14500
H406        H  0.83492898  0.49239694  0.07802836     0.00200
H407        H  0.82258663  0.57915004  0.08745780     0.14800
H408        H  0.89952390  0.55175225  0.08273661     0.14500
C409        C  0.94152831  0.64292796  0.06675922     0.86300
C410        C  0.94208908  0.66991738  0.08245826    -0.53900
C411        C  0.96756998  0.67846710  0.08949087     0.09300
C412        C  0.99011412  0.65932825  0.07967096     0.20200
C413        C  0.96034887  0.64831172  0.04222460    -0.54600
C414        C  0.98599364  0.65648384  0.04895732     0.09400
C415        C  0.95750882  0.62300053  0.08438789    -0.54200
C416        C  0.98255266  0.63160778  0.09122270     0.09900
H417        H  0.92388257  0.68066886  0.08819556     0.14500
H418        H  0.01064429  0.66619251  0.08540243     0.00200
H419        H  0.95464326  0.64541488  0.02136059     0.14800
H420        H  0.94969084  0.60343654  0.09079654     0.14500
C421        C  0.08721167  0.55949393  0.84099676     0.86300
C422        C  0.10034358  0.55832127  0.81282262    -0.53900
C423        C  0.10474498  0.53253566  0.80380066     0.09300
C424        C  0.09565816  0.51030537  0.82349575     0.20200
C425        C  0.06126914  0.54195260  0.83833115    -0.54600
C426        C  0.06581133  0.51617246  0.82948968     0.09400
C427        C  0.10590819  0.54235038  0.85899048    -0.54200
C428        C  0.11061155  0.51667709  0.84998177     0.09900
H429        H  0.10592633  0.57613922  0.80123338     0.14500
H430        H  0.09875807  0.48965930  0.81544515     0.00200
H431        H  0.04105647  0.54828488  0.84363832     0.14800
H432        H  0.11504578  0.55035729  0.87723526     0.14500
C433        C  0.08729994  0.64142238  0.92157300     0.86300
C434        C  0.06252405  0.64816976  0.93962383    -0.53900
C435        C  0.06891994  0.65632388  0.96528463     0.09300
C436        C  0.09962946  0.65731949  0.97046262     0.20200
C437        C  0.10447423  0.66753181  0.92255425    -0.54600
C438        C  0.11116951  0.67569056  0.94816556     0.09400
C439        C  0.10338757  0.62072379  0.93824935    -0.54200
C440        C  0.10987458  0.62899847  0.96343728     0.09900
H441        H  0.04172834  0.64607922  0.93377847     0.14500
H442        H  0.10502064  0.66394116  0.99113911     0.00200
H443        H  0.11104275  0.67832950  0.90460463     0.14800
H444        H  0.10947708  0.60102478  0.93058863     0.14500
C445        C  0.58697525  0.05834275  0.16457985     0.86300
C446        C  0.56178857  0.04065823  0.17067032    -0.53900
C447        C  0.56758563  0.01519589  0.17980887     0.09300
C448        C  0.59804331  0.01003579  0.18326241     0.20200
C449        C  0.60222215  0.05867385  0.19170318    -0.54600
C450        C  0.60830107  0.03335576  0.20113961     0.09400
C451        C  0.60458340  0.04093082  0.14590188    -0.54200
C452        C  0.60991446  0.01557843  0.15522659     0.09900
H453        H  0.54116523  0.04718294  0.16699510     0.14500
H454        H  0.60272670  0.98963893  0.19145405     0.00200
H455        H  0.60718731  0.07676000  0.20300940     0.14800
H456        H  0.61181644  0.04815118  0.12647742     0.14500
C457        C  0.58508853  0.13958975  0.08098651     0.86300
C458        C  0.60163868  0.12073579  0.06281436    -0.53900
C459        C  0.60682363  0.13044274  0.03758267     0.09300
C460        C  0.59461011  0.15863412  0.03264412     0.20200
C461        C  0.60125007  0.16637261  0.08099590    -0.54600
C462        C  0.60606452  0.17625387  0.05554745     0.09400
C463        C  0.55951247  0.14665999  0.06469361    -0.54200
C464        C  0.56438187  0.15545618  0.03899870     0.09900
H465        H  0.60920227  0.10134797  0.06991614     0.14500
H466        H  0.59820824  0.16687568  0.01215549     0.00200
H467        H  0.60760438  0.17702475  0.09904202     0.14800
H468        H  0.53920508  0.14451783  0.07268967     0.14500
C469        C  0.44050906  0.91319521  0.16518343     0.86300
C470        C  0.44052710  0.89767974  0.19233399    -0.53900
C471        C  0.46589766  0.89282478  0.20238610     0.09300
C472        C  0.48887479  0.90350336  0.18446540     0.20200
C473        C  0.45766753  0.93899412  0.17070878    -0.54600
C474        C  0.48299362  0.93374735  0.18064967     0.09400
C475        C  0.45893425  0.89639951  0.14660118    -0.54200
C476        C  0.48386574  0.89110686  0.15665549     0.09900
H477        H  0.42221727  0.89142049  0.20271006     0.14500
H478        H  0.50941441  0.89933486  0.19253455     0.00200
H479        H  0.45210544  0.95937499  0.16528351     0.14800
H480        H  0.45273287  0.88924721  0.12680019     0.14500
C481        C  0.44009190  0.14456766  0.93581911     0.86300
C482        C  0.45643540  0.15325684  0.96066126    -0.53900
C483        C  0.48228857  0.16137113  0.95519481     0.09300
C484        C  0.48867479  0.16228459  0.92469848     0.20200
C485        C  0.44030361  0.17005915  0.91772933    -0.54600
C486        C  0.46585541  0.17921519  0.91185280     0.09400
C487        C  0.45823439  0.12427511  0.92097850    -0.54200
C488        C  0.48357741  0.13319419  0.91480401     0.09900
H489        H  0.44889395  0.15130908  0.98115636     0.14500
H490        H  0.50885442  0.17059550  0.91993651     0.00200
H491        H  0.42233369  0.18030892  0.91050058     0.14800
H492        H  0.45125890  0.10394972  0.91645189     0.14500
C493        C  0.35900968  0.06168313  0.93381735     0.86300
C494        C  0.37907698  0.04406954  0.91773430    -0.53900
C495        C  0.37052932  0.01830033  0.91211282     0.09300
C496        C  0.34217331  0.01256075  0.92370869     0.20200
C497        C  0.33255131  0.06058712  0.91721667    -0.54600
C498        C  0.32407524  0.03476448  0.91153489     0.09400
C499        C  0.35247833  0.04477616  0.95912947    -0.54200
C500        C  0.34454432  0.01885578  0.95406743     0.09900
H501        H  0.39883214  0.05169498  0.91197743     0.14500
H502        H  0.33379308  0.99232643  0.91978269     0.00200
H503        H  0.32122799  0.07803333  0.91045845     0.14800
H504        H  0.35543748  0.05213497  0.97956275     0.14500
C505        C  0.36167465  0.91342143  0.08012079     0.86300
C506        C  0.35793761  0.94005859  0.06386677    -0.53900
C507        C  0.34829267  0.93635044  0.03813453     0.09300
C508        C  0.34266631  0.90656689  0.03128975     0.20200
C509        C  0.33369636  0.89963154  0.07918075    -0.54600
C510        C  0.32382319  0.89579483  0.05358673     0.09400
C511        C  0.37963431  0.89609219  0.06161215    -0.54200
C512        C  0.36949995  0.89238814  0.03647392     0.09900
H513        H  0.36335108  0.95997410  0.07113255     0.14500
H514        H  0.33505671  0.90340333  0.01044142     0.00200
H515        H  0.32348940  0.89219168  0.09710770     0.14800
H516        H  0.39879898  0.88733933  0.06786004     0.14500
C517        C  0.45690616  0.89818486  0.84019495     0.86300
C518        C  0.43971786  0.89828354  0.81418738    -0.53900
C519        C  0.43448784  0.92375114  0.80450362     0.09300
C520        C  0.44690321  0.94667523  0.82151962     0.20200
C521        C  0.48227270  0.91425973  0.83216034    -0.54600
C522        C  0.47725422  0.94001934  0.82350751     0.09400
C523        C  0.44150085  0.91669444  0.85978230    -0.54200
C524        C  0.43587902  0.94195239  0.85010529     0.09900
H525        H  0.43235238  0.88023733  0.80417385     0.14500
H526        H  0.44254729  0.96702423  0.81318229     0.00200
H527        H  0.50269285  0.90658624  0.83444792     0.14800
H528        H  0.43558568  0.91005483  0.87985095     0.14500
C529        C  0.45436792  0.81503468  0.91996341     0.86300
C530        C  0.47847491  0.80930264  0.93898824    -0.53900
C531        C  0.47114807  0.80153061  0.96441013     0.09300
C532        C  0.44046190  0.79959184  0.96842676     0.20200
C533        C  0.43830792  0.78828985  0.92048696    -0.54600
C534        C  0.43055625  0.78069851  0.94591899     0.09400
C535        C  0.43646199  0.83522159  0.93526597    -0.54200
C536        C  0.42958613  0.82768993  0.96079644     0.09900
H537        H  0.49946665  0.81189584  0.93320934     0.14500
H538        H  0.43504999  0.79241355  0.98893712     0.00200
H539        H  0.43399577  0.77597433  0.90291991     0.14800
H540        H  0.42936395  0.85371922  0.92585698     0.14500
C541        C  0.59635043  0.81597437  0.06562870     0.86300
C542        C  0.59559847  0.78868223  0.08079257    -0.53900
C543        C  0.57011514  0.78072020  0.08826647     0.09300
C544        C  0.54772102  0.80043322  0.07957974     0.20200
C545        C  0.57705723  0.81113215  0.04156408    -0.54600
C546        C  0.55149700  0.80340313  0.04887199     0.09400
C547        C  0.58121490  0.83597215  0.08390881    -0.54200
C548        C  0.55608236  0.82787030  0.09124234     0.09900
H549        H  0.61336003  0.77653317  0.08496377     0.14500
H550        H  0.52714687  0.79382472  0.08567627     0.00200
H551        H  0.58275816  0.81347261  0.02056281     0.14800
H552        H  0.58972834  0.85516776  0.09047113     0.14500
C553        C  0.67765285  0.89705426  0.06498781     0.86300
C554        C  0.68478195  0.91570845  0.04100392    -0.53900
C555        C  0.69270064  0.94127823  0.04810153     0.09300
C556        C  0.69470620  0.94511112  0.07895098     0.20200
C557        C  0.70405641  0.89677427  0.08186331    -0.54600
C558        C  0.71302469  0.92207728  0.08927644     0.09400
C559        C  0.65754441  0.91329659  0.08218280    -0.54200
C560        C  0.66661612  0.93802876  0.08973101     0.09900
H561        H  0.68352207  0.90952734  0.02011879     0.14500
H562        H  0.70182900  0.96546100  0.08500917     0.00200
H563        H  0.71432736  0.87832200  0.08777259     0.14800
H564        H  0.63785961  0.90562000  0.08829797     0.14500
C565        C  0.60183498  0.04562413  0.84090360     0.86300
C566        C  0.58551303  0.01940827  0.83611572    -0.53900
C567        C  0.55921339  0.02374471  0.82867793     0.09300
C568        C  0.55177750  0.05383842  0.82604577     0.20200
C569        C  0.59896222  0.06142596  0.81420769    -0.54600
C570        C  0.57270642  0.06598923  0.80668677     0.09400
C571        C  0.58459272  0.06135244  0.86144090    -0.54200
C572        C  0.55854257  0.06604588  0.85377052     0.09900
H573        H  0.59333058  0.99913055  0.83863657     0.14500
H574        H  0.53084526  0.05730733  0.81897218     0.00200
H575        H  0.61608814  0.06870167  0.80255246     0.14800
H576        H  0.59261656  0.06795978  0.88073835     0.14500
C577        C  0.68250661  0.04489730  0.92113609     0.86300
C578        C  0.70972997  0.06002447  0.92273521    -0.53900
C579        C  0.71795475  0.06577024  0.94850173     0.09300
C580        C  0.69856717  0.05527774  0.97039933     0.20200
C581        C  0.68659190  0.01938020  0.93897806    -0.54600
C582        C  0.69521250  0.02478142  0.96476081     0.09400
C583        C  0.66276511  0.06221525  0.93783120    -0.54200
C584        C  0.67113764  0.06761302  0.96327229     0.09900
H585        H  0.72106949  0.06629023  0.90501939     0.14500
H586        H  0.70539308  0.06001589  0.99118978     0.00200
H587        H  0.68124909  0.99906621  0.93317540     0.14800
H588        H  0.64349450  0.06951130  0.93018381     0.14500
In589      In  0.52054487  0.13959312  0.66153042     1.36900
C590        C  0.47971704  0.10539338  0.65716093     0.77400
O591        O  0.54644796  0.11217226  0.68582081    -0.61000
O592        O  0.52289284  0.14042141  0.70753422    -0.51900
C593        C  0.56300503  0.13642909  0.62925358     0.70100
O594        O  0.54277468  0.12096501  0.62752079    -0.46800
C595        C  0.50059433  0.18674890  0.64434748     0.74800
O596        O  0.49990818  0.10496480  0.64162474    -0.58600
O597        O  0.51600002  0.18527958  0.66469953    -0.48700
O598        O  0.48021688  0.12393212  0.67469708    -0.55100
C599        C  0.53917217  0.12067559  0.70856674     0.85000
O600        O  0.56143910  0.15403349  0.64768501    -0.57000
O601        O  0.49500105  0.16423776  0.63394974    -0.60300
In602      In  0.67980803  0.12863432  0.50767129     1.36900
C603        C  0.67639645  0.09820585  0.46404382     0.77400
O604        O  0.64653862  0.15451111  0.49306777    -0.61000
O605        O  0.68599606  0.17167252  0.49260040    -0.51900
C606        C  0.64834569  0.12717040  0.55065706     0.70100
O607        O  0.64607785  0.11094526  0.53116329    -0.46800
C608        C  0.72539502  0.10776255  0.52674083     0.74800
O609        O  0.66111404  0.09544956  0.48425103    -0.58600
O610        O  0.72330532  0.13293341  0.52214075    -0.48700
O611        O  0.69307027  0.11752199  0.46576456    -0.55100
C612        C  0.66095353  0.17491320  0.48814875     0.85000
O613        O  0.66800874  0.14345208  0.54883635    -0.57000
O614        O  0.70418024  0.09439820  0.52248171    -0.60300
In615      In  0.67763391  0.97666934  0.34517204     1.36900
C616        C  0.67603083  0.01693896  0.38058299     0.77400
O617        O  0.70125370  0.94778288  0.37057943    -0.61000
O618        O  0.72235163  0.96839101  0.33950988    -0.51900
C619        C  0.64518378  0.93427575  0.34613154     0.70100
O620        O  0.64648020  0.95140740  0.36494303    -0.46800
C621        C  0.65917114  0.00050220  0.30048223     0.74800
O622        O  0.65846879  0.99852643  0.37940914    -0.58600
O623        O  0.68250976  0.99002662  0.30156113    -0.48700
O624        O  0.69465506  0.01484244  0.36330254    -0.55100
C625        C  0.72352718  0.95189802  0.35905973     0.85000
O626        O  0.66068013  0.93900850  0.32636044    -0.57000
O627        O  0.64620427  0.99918037  0.32228439    -0.60300
In628      In  0.36412468  0.98065609  0.66083770     1.36900
C629        C  0.39800376  0.02220436  0.65830991     0.77400
O630        O  0.33966148  0.00359049  0.63089028    -0.61000
O631        O  0.31928929  0.98976087  0.66591408    -0.51900
C632        C  0.36585978  0.94125056  0.62513990     0.70100
O633        O  0.38474519  0.95815316  0.62804548    -0.46800
C634        C  0.37923553  0.95723146  0.70734368     0.74800
O635        O  0.39938758  0.00210743  0.64279257    -0.58600
O636        O  0.36007435  0.97409217  0.70607610    -0.48700
O637        O  0.37904146  0.02104091  0.67529922    -0.55100
C638        C  0.31757043  0.00169467  0.64334017     0.85000
O639        O  0.34638544  0.94392362  0.64146991    -0.57000
O640        O  0.38933523  0.95149961  0.68477617    -0.60300
In641      In  0.36389905  0.82638760  0.50039437     1.36900
C642        C  0.36511002  0.86116469  0.54070696     0.77400
O643        O  0.33853160  0.85331157  0.47455249    -0.61000
O644        O  0.31876511  0.82159382  0.49562378    -0.51900
C645        C  0.39735119  0.82764303  0.45893567     0.70100
O646        O  0.39808730  0.84486097  0.47769719    -0.46800
C647        C  0.38101385  0.77945081  0.52078151     0.74800
O648        O  0.38301437  0.86066192  0.52255992    -0.58600
O649        O  0.36054151  0.78113418  0.50563416    -0.48700
O650        O  0.34709896  0.84318342  0.53858527    -0.55100
C651        C  0.31645205  0.84198869  0.48033150     0.85000
O652        O  0.37870640  0.81030961  0.46099693    -0.57000
O653        O  0.39136160  0.80193619  0.52678532    -0.60300
In654      In  0.52244839  0.81806679  0.34477891     1.36900
C655        C  0.48134269  0.82093443  0.37881986     0.77400
O656        O  0.50323957  0.85198221  0.32228658    -0.61000
O657        O  0.50905373  0.81529775  0.30087625    -0.51900
C658        C  0.56622365  0.84860926  0.34675114     0.70100
O659        O  0.54830038  0.84853624  0.36488749    -0.46800
C660        C  0.54247125  0.77002312  0.35895204     0.74800
O661        O  0.50093522  0.83722331  0.37926084    -0.58600
O662        O  0.52781696  0.77294778  0.33821271    -0.48700
O663        O  0.48280465  0.80304418  0.36076230    -0.55100
C664        C  0.50092535  0.83959412  0.30025853     0.85000
O665        O  0.56224920  0.83194557  0.32778925    -0.57000
O666        O  0.54736421  0.79166850  0.37139272    -0.60300
C667        C  0.09356388  0.13713835  0.57168221     0.86300
C668        C  0.07499803  0.14336032  0.54736682    -0.53900
C669        C  0.04954148  0.15193218  0.55421745     0.09300
C670        C  0.04554689  0.15495638  0.58496110     0.20200
C671        C  0.09401816  0.16426132  0.58729298    -0.54600
C672        C  0.06880505  0.17355754  0.59433053     0.09400
C673        C  0.07718394  0.11784068  0.58958050    -0.54200
C674        C  0.05234054  0.12693213  0.59641674     0.09900
H675        H  0.08105561  0.14029406  0.52654932     0.14500
H676        H  0.02523803  0.16248150  0.59074144     0.00200
H677        H  0.11227927  0.17554799  0.59179681     0.14800
H678        H  0.08449974  0.09807148  0.59592270     0.14500
C679        C  0.17854030  0.05732021  0.57370871     0.86300
C680        C  0.20547213  0.05837617  0.58966500    -0.53900
C681        C  0.21570386  0.03332491  0.59574310     0.09300
C682        C  0.19871576  0.00962056  0.58500283     0.20200
C683        C  0.18573421  0.04005455  0.54865453    -0.54600
C684        C  0.19577389  0.01488871  0.55449948     0.09400
C685        C  0.15991490  0.03895453  0.59056662    -0.54200
C686        C  0.17035032  0.01420017  0.59635765     0.09900
H687        H  0.21649948  0.07668415  0.59445906     0.14500
H688        H  0.20723916  0.98940496  0.58994748     0.00200
H689        H  0.18151203  0.04648690  0.52814852     0.14800
H690        H  0.13969601  0.04485341  0.59684687     0.14500
C691        C  0.17840620  0.91476803  0.42735406     0.86300
C692        C  0.18475015  0.93886650  0.44619952    -0.53900
C693        C  0.19262568  0.93161570  0.47172325     0.09300
C694        C  0.19486475  0.90067703  0.47550858     0.20200
C695        C  0.20515322  0.89853636  0.42739230    -0.54600
C696        C  0.21370861  0.89105293  0.45269932     0.09400
C697        C  0.15839056  0.89704043  0.44309666    -0.54200
C698        C  0.16692238  0.88964014  0.46795734     0.09900
H699        H  0.18277751  0.95985953  0.44012134     0.14500
H700        H  0.20185854  0.89455308  0.49583883     0.00200
H701        H  0.21666560  0.89385074  0.40935903     0.14800
H702        H  0.13896545  0.89061359  0.43505677     0.14500
C703        C  0.95140610  0.13240777  0.42576547     0.86300
C704        C  0.93439728  0.15867686  0.42572584    -0.53900
C705        C  0.92704566  0.16742661  0.45099825     0.09300
C706        C  0.93761272  0.14914337  0.47389046     0.20200
C707        C  0.97558412  0.13966436  0.44415855    -0.54600
C708        C  0.96843480  0.14790075  0.46957761     0.09400
C709        C  0.93464575  0.11203663  0.44204964    -0.54200
C710        C  0.92749172  0.12070105  0.46694741     0.09900
H711        H  0.92922312  0.16981277  0.40756695     0.14500
H712        H  0.93187798  0.15595971  0.49441737     0.00200
H713        H  0.99648490  0.13775930  0.43794790     0.14800
H714        H  0.92905919  0.09212940  0.43453144     0.14500
C715        C  0.95358155  0.05541412  0.33884932     0.86300
C716        C  0.97871551  0.03795048  0.33277088    -0.53900
C717        C  0.97290051  0.01291281  0.32272855     0.09300
C718        C  0.94241139  0.00788087  0.31860478     0.20200
C719        C  0.93875830  0.05662458  0.31135188    -0.54600
C720        C  0.93257017  0.03160231  0.30111190     0.09400
C721        C  0.93576445  0.03736086  0.35682823    -0.54200
C722        C  0.92920690  0.01273142  0.34627920     0.09900
H723        H  0.99931770  0.04418440  0.33698748     0.14500
H724        H  0.93798482  0.98795238  0.30936656     0.00200
H725        H  0.93348711  0.07516621  0.30088627     0.14800
H726        H  0.92974154  0.04371101  0.37688061     0.14500
C727        C  0.10009494  0.91348389  0.34221195     0.86300
C728        C  0.10153681  0.89947161  0.31437664    -0.53900
C729        C  0.07665879  0.89274870  0.30427545     0.09300
C730        C  0.05278380  0.90076764  0.32236816     0.20200
C731        C  0.08128125  0.93798129  0.33696783    -0.54600
C732        C  0.05643815  0.93122022  0.32709952     0.09400
C733        C  0.08336321  0.89409900  0.35987948    -0.54200
C734        C  0.05861040  0.88738291  0.34977201     0.09900
H735        H  0.11997943  0.89616604  0.30303622     0.14500
H736        H  0.03278732  0.89585622  0.31356097     0.00200
H737        H  0.08677979  0.95885690  0.34101207     0.14800
H738        H  0.09075020  0.88638389  0.37905382     0.14500
C739        C  0.93972906  0.81083196  0.43222165     0.86300
C740        C  0.94237315  0.78343393  0.41771016    -0.53900
C741        C  0.96857479  0.77543076  0.41338821     0.09300
C742        C  0.98978590  0.79540737  0.42444852     0.20200
C743        C  0.95628441  0.80721720  0.45834691    -0.54600
C744        C  0.98249024  0.79958532  0.45430096     0.09400
C745        C  0.95701208  0.83058013  0.41519366    -0.54200
C746        C  0.98286164  0.82236954  0.41099417     0.09900
H747        H  0.92506077  0.77187565  0.41071794     0.14500
H748        H  0.01110544  0.78919208  0.42131894     0.00200
H749        H  0.94898858  0.81065641  0.47847274     0.14800
H750        H  0.94942686  0.84958880  0.40713097     0.14500
C751        C  0.85799872  0.89025765  0.43086704     0.86300
C752        C  0.85374416  0.90652283  0.45711096    -0.53900
C753        C  0.84490696  0.93234961  0.45291538     0.09300
C754        C  0.84037421  0.93940828  0.42289453     0.20200
C755        C  0.83059942  0.89153565  0.41624009    -0.54600
C756        C  0.82154591  0.91728623  0.41170241     0.09400
C757        C  0.87708154  0.90845455  0.41422491    -0.54200
C758        C  0.86764917  0.93388946  0.40895730     0.09900
H759        H  0.85887978  0.89951640  0.47717378     0.14500
H760        H  0.83200995  0.95998600  0.42005965     0.00200
H761        H  0.81995222  0.87371141  0.40906765     0.14800
H762        H  0.89680088  0.90143425  0.40781125     0.14500
C763        C  0.08345562  0.81042697  0.58204825     0.86300
C764        C  0.05793629  0.80453894  0.56503619    -0.53900
C765        C  0.06309072  0.79622541  0.53921345     0.09300
C766        C  0.09335710  0.79324772  0.53307687     0.20200
C767        C  0.09913038  0.78336462  0.58110339    -0.54600
C768        C  0.10434847  0.77462646  0.55537153     0.09400
C769        C  0.10017340  0.82997311  0.56467336    -0.54200
C770        C  0.10533713  0.82117927  0.53919846     0.09900
H771        H  0.03745287  0.80733457  0.57235855     0.14500
H772        H  0.09770271  0.78623044  0.51229002     0.00200
H773        H  0.10483563  0.77166246  0.59872957     0.14800
H774        H  0.10722751  0.84946814  0.57202299     0.14500
C775        C  0.08402606  0.89282452  0.66364707     0.86300
C776        C  0.10238933  0.89263747  0.68906132    -0.53900
C777        C  0.10831446  0.91809023  0.69840425     0.09300
C778        C  0.09583584  0.94101138  0.68174746     0.20200
C779        C  0.05919111  0.90955606  0.67278163    -0.54600
C780        C  0.06542112  0.93504848  0.68150424     0.09400
C781        C  0.09903035  0.91100467  0.64334935    -0.54200
C782        C  0.10535879  0.93592883  0.65289099     0.09900
H783        H  0.10882651  0.87447208  0.69956262     0.14500
H784        H  0.10095148  0.96155935  0.68933931     0.00200
H785        H  0.03848402  0.90248503  0.67144260     0.14800
H786        H  0.10500778  0.90428479  0.62333189     0.14500
C787        C  0.85856728  0.03000114  0.58330917     0.86300
C788        C  0.83101016  0.04472592  0.58281774    -0.53900
C789        C  0.82210753  0.05046971  0.55733040     0.09300
C790        C  0.84083618  0.04064229  0.53474575     0.20200
C791        C  0.85362892  0.00458452  0.56559966    -0.54600
C792        C  0.84485708  0.01034918  0.54009049     0.09400
C793        C  0.87745158  0.04799217  0.56629019    -0.54200
C794        C  0.86812030  0.05363351  0.54108625     0.09900
H795        H  0.81910489  0.04960115  0.60052037     0.14500
H796        H  0.83336522  0.04509706  0.51406202     0.00200
H797        H  0.85771139  0.98398455  0.57203237     0.14800
H798        H  0.89657808  0.05584078  0.57374720     0.14500
C799        C  0.93888505  0.03310328  0.66662182     0.86300
C800        C  0.95721377  0.00921642  0.67497363    -0.53900
C801        C  0.98214809  0.01680691  0.68399209     0.09300
C802        C  0.98587174  0.04764129  0.68584142     0.20200
C803        C  0.93704723  0.05027856  0.69270376    -0.54600
C804        C  0.96181445  0.05774292  0.70258659     0.09400
C805        C  0.95609068  0.05030221  0.64723420    -0.54200
C806        C  0.98038936  0.05824933  0.65731356     0.09900
H807        H  0.95160605  0.98808890  0.67306279     0.14500
H808        H  0.00583738  0.05358456  0.69419762     0.00200
H809        H  0.91834011  0.05520383  0.70301766     0.14800
H810        H  0.94916979  0.05628602  0.62727642     0.14500
In811      In  0.17817362  0.48109449  0.65859710     1.36900
C812        C  0.14817116  0.43712592  0.65494405     0.77400
O813        O  0.20386374  0.45504288  0.63236619    -0.61000
O814        O  0.22363462  0.47644001  0.66370559    -0.51900
C815        C  0.17606305  0.52346671  0.62565444     0.70100
O816        O  0.15896110  0.50454621  0.62533290    -0.46800
C817        C  0.15649709  0.49953440  0.70446855     0.74800
O818        O  0.14858361  0.45516188  0.63683121    -0.58600
O819        O  0.18079159  0.49152133  0.70322892    -0.48700
O820        O  0.16405283  0.44122196  0.67452500    -0.55100
C821        C  0.22594209  0.46088103  0.64353626     0.85000
O822        O  0.19399987  0.52107938  0.64356461    -0.57000
O823        O  0.14413650  0.49881129  0.68229762    -0.60300
In824      In  0.18020085  0.63355310  0.49684071     1.36900
C825        C  0.17626668  0.60318121  0.54058124     0.77400
O826        O  0.20636481  0.59994194  0.48424574    -0.61000
O827        O  0.22356303  0.63933057  0.48213061    -0.51900
C828        C  0.15187371  0.63010070  0.45197099     0.70100
O829        O  0.14993864  0.61332804  0.47109948    -0.46800
C830        C  0.15819338  0.67827163  0.51715273     0.74800
O831        O  0.16069316  0.60083078  0.52054624    -0.58600
O832        O  0.18345934  0.67657994  0.51291564    -0.48700
O833        O  0.19368393  0.62183471  0.53847198    -0.55100
C834        C  0.22679143  0.61406648  0.47875269     0.85000
O835        O  0.16937130  0.64843744  0.45537453    -0.57000
O836        O  0.14511946  0.65735807  0.51087423    -0.60300
In837      In  0.02284559  0.63042114  0.34356259     1.36900
C838        C  0.98161510  0.59658199  0.34500076     0.77400
O839        O  0.99698873  0.65385979  0.37188626    -0.61000
O840        O  0.01542245  0.67525831  0.33953982    -0.51900
C841        C  0.06616850  0.62975685  0.37450362     0.70100
O842        O  0.04667764  0.61353699  0.37744457    -0.46800
C843        C  0.04402313  0.61239644  0.29788400     0.74800
O844        O  0.00086080  0.59568580  0.36170932    -0.58600
O845        O  0.03120522  0.63456472  0.29894848    -0.48700
O846        O  0.98331878  0.61538198  0.32773307    -0.55100
C847        C  0.00089222  0.67633783  0.36054161     0.85000
O848        O  0.06309249  0.64704036  0.35599318    -0.57000
O849        O  0.04619208  0.60034604  0.32014219    -0.60300
In850      In  0.02029375  0.32603825  0.65352696     1.36900
C851        C  0.06400929  0.35698546  0.65212946     0.77400
O852        O  0.99527450  0.35572110  0.67706041    -0.61000
O853        O  0.01124347  0.32206634  0.69815160    -0.51900
C854        C  0.98028381  0.32760962  0.61812623     0.70100
O855        O  0.99815265  0.34577860  0.61957587    -0.46800
C856        C  0.04073293  0.27813339  0.63933305     0.74800
O857        O  0.04669697  0.35676618  0.63343968    -0.58600
O858        O  0.02526985  0.28095498  0.65948731    -0.48700
O859        O  0.05887933  0.34120702  0.67153125    -0.55100
C860        C  0.99796109  0.34389311  0.69944697     0.85000
O861        O  0.98245465  0.30907728  0.63554220    -0.57000
O862        O  0.04637000  0.29993579  0.62743430    -0.60300
In863      In  0.86366910  0.31956756  0.49483268     1.36900
C864        C  0.89862973  0.32353517  0.53514198     0.77400
O865        O  0.83989137  0.35325525  0.51291842    -0.61000
O866        O  0.82016639  0.31528123  0.50879884    -0.51900
C867        C  0.86479993  0.34926527  0.45061626     0.70100
O868        O  0.88341219  0.34956018  0.46804968    -0.46800
C869        C  0.87779942  0.27094734  0.47604143     0.74800
O870        O  0.89927970  0.33891837  0.51485667    -0.58600
O871        O  0.85833496  0.27405429  0.49229303    -0.48700
O872        O  0.87976985  0.30641413  0.53483539    -0.55100
C873        C  0.81853833  0.33975942  0.51606620     0.85000
O874        O  0.84566267  0.33295876  0.45552545    -0.57000
O875        O  0.88863129  0.29273450  0.46856173    -0.60300
In876      In  0.86380239  0.47418310  0.33670407     1.36900
C877        C  0.86545589  0.43114356  0.36829559     0.77400
O878        O  0.84080290  0.49938254  0.36648555    -0.61000
O879        O  0.81891165  0.48284061  0.33368189    -0.51900
C880        C  0.89836428  0.51493327  0.33994154     0.70100
O881        O  0.89787319  0.49558322  0.35655287    -0.46800
C882        C  0.87910526  0.45237470  0.28978914     0.74800
O883        O  0.88367358  0.44899809  0.36804727    -0.58600
O884        O  0.85862250  0.46763455  0.29157698    -0.48700
O885        O  0.84617392  0.43534919  0.35213165    -0.55100
C886        C  0.81815672  0.49646526  0.35529070     0.85000
O887        O  0.88087665  0.51343545  0.32141768    -0.57000
O888        O  0.89091072  0.44822083  0.31186371    -0.60300
C889        C  0.86537925  0.36741760  0.42696751    -0.05600
C890        C  0.88949227  0.38106662  0.42072938    -0.33000
C891        C  0.89012344  0.40097251  0.40073777     0.36200
C892        C  0.86627532  0.40774300  0.38673265    -0.06000
C893        C  0.84252256  0.39303494  0.39184058    -0.32900
C894        C  0.84193086  0.37298343  0.41179833     0.36100
H895        H  0.90785659  0.37680918  0.43187263     0.16500
O896        O  0.91397145  0.41427577  0.39574402    -0.60400
H897        H  0.82401799  0.39788087  0.38118306     0.16500
O898        O  0.81789471  0.36036023  0.41750274    -0.60500
H899        H  0.81734962  0.34438231  0.40542247     0.43500
H900        H  0.92336265  0.40317601  0.38194041     0.43500
C901        C  0.91864995  0.32521615  0.55713002    -0.05600
C902        C  0.93988877  0.34397637  0.55519010    -0.33000
C903        C  0.95989856  0.34524663  0.57503892     0.36200
C904        C  0.95884909  0.32761242  0.59741936    -0.06000
C905        C  0.93745129  0.30904540  0.59950205    -0.32900
C906        C  0.91734269  0.30789613  0.57973922     0.36100
H907        H  0.94127595  0.35750457  0.53800785     0.16500
O908        O  0.98053151  0.36358728  0.57211278    -0.60400
H909        H  0.93626829  0.29529538  0.61652208     0.16500
O910        O  0.89680178  0.28943945  0.58258384    -0.60500
H911        H  0.88242748  0.29912929  0.59266885     0.43500
H912        H  0.99438066  0.35418954  0.56103421     0.43500
C913        C  0.95921582  0.57680339  0.34517904    -0.05600
C914        C  0.93849831  0.57896252  0.32591514    -0.33000
C915        C  0.91799294  0.55949935  0.32445282     0.36200
C916        C  0.91827545  0.53711072  0.34210935    -0.06000
C917        C  0.93841036  0.53552842  0.36201225    -0.32900
C918        C  0.95870528  0.55510633  0.36369822     0.36100
H919        H  0.93829018  0.59566124  0.31171390     0.16500
O920        O  0.89807604  0.56242019  0.30543001    -0.60400
H921        H  0.93877121  0.51876422  0.37613820     0.16500
O922        O  0.97790162  0.55273386  0.38353946    -0.60500
H923        H  0.99167079  0.54013151  0.37613362     0.43500
H924        H  0.88356059  0.57281003  0.31456803     0.43500
C925        C  0.13360742  0.62884013  0.42854437    -0.05600
C926        C  0.11759337  0.60563829  0.42527991    -0.33000
C927        C  0.09612052  0.60541849  0.40711723     0.36200
C928        C  0.09049198  0.62859780  0.39155575    -0.06000
C929        C  0.10783274  0.65107184  0.39315299    -0.32900
C930        C  0.12937783  0.65130361  0.41148263     0.36100
H931        H  0.12095142  0.58788923  0.43771377     0.16500
O932        O  0.08066991  0.58244890  0.40489722    -0.60400
H933        H  0.10402166  0.66893705  0.38102308     0.16500
O934        O  0.14485444  0.67422853  0.41382814    -0.84500
H935        H  0.15904010  0.67245568  0.39978246     0.43500
H936        H  0.06739775  0.58350683  0.41990505     0.43500
C937        C  0.08787835  0.37491635  0.65184011    -0.05600
C938        C  0.10130634  0.38043104  0.67616442    -0.33000
C939        C  0.12204617  0.39963278  0.67721684     0.36200
C940        C  0.12954481  0.41383203  0.65369468    -0.06000
C941        C  0.11724174  0.40714990  0.62905277    -0.32900
C942        C  0.09658357  0.38781526  0.62797466     0.36100
H943        H  0.09500162  0.37062939  0.69470950     0.16500
O944        O  0.13345947  0.40567622  0.70170140    -0.60400
H945        H  0.12316992  0.41742850  0.61063644     0.16500
O946        O  0.08518331  0.38158234  0.60351395    -0.60500
H947        H  0.07242412  0.39659801  0.59962170     0.43500
H948        H  0.14816053  0.39224128  0.70408732     0.43500
C949        C  0.17530332  0.54590769  0.60591302    -0.05600
C950        C  0.15356858  0.54728569  0.58778467    -0.33000
C951        C  0.15314245  0.56647122  0.56709851     0.36200
C952        C  0.17482091  0.58477197  0.56406848    -0.06000
C953        C  0.19610265  0.58416125  0.58283044    -0.32900
C954        C  0.19645892  0.56495982  0.60367033     0.36100
H955        H  0.13698018  0.53301354  0.58922183     0.16500
O956        O  0.13176957  0.56651453  0.54946315    -0.60400
H957        H  0.21297769  0.59802620  0.58085745     0.16500
O958        O  0.21820588  0.56422098  0.62081871    -0.60500
H959        H  0.21343545  0.57661992  0.63580708     0.43500
H960        H  0.11758380  0.57749635  0.55838253     0.43500
C961        C  0.87200970  0.02477072  0.61076082    -0.05600
C962        C  0.89276971  0.00534483  0.61163360    -0.33000
C963        C  0.91280360  0.00568229  0.63146332     0.36200
C964        C  0.91254551  0.02548272  0.65214808    -0.06000
C965        C  0.89069823  0.04375935  0.65252515    -0.32900
C966        C  0.87105868  0.04393836  0.63204346     0.36100
H967        H  0.89570985  0.99146106  0.59504528     0.16500
O968        O  0.93454481  0.98885341  0.62788350    -0.60400
H969        H  0.89024220  0.06011380  0.66699725     0.16500
O970        O  0.85264080  0.06464574  0.63197062    -0.60500
H971        H  0.86165159  0.07977077  0.62231380     0.43500
H972        H  0.92801897  0.97055780  0.63299026     0.43500
C973        C  0.04495489  0.95663052  0.68534287    -0.05600
C974        C  0.04874282  0.98123368  0.67174364    -0.33000
C975        C  0.02898896  0.00138957  0.67231856     0.36200
C976        C  0.00473058  0.99718359  0.68664188    -0.06000
C977        C  0.00128930  0.97295927  0.70119523    -0.32900
C978        C  0.02128740  0.95274081  0.70069067     0.36100
H979        H  0.06663583  0.98445097  0.65951672     0.16500
O980        O  0.03267183  0.02411468  0.65682830    -0.60400
H981        H  0.98288863  0.96955390  0.71258483     0.16500
O982        O  0.01785598  0.92959968  0.71565131    -0.60500
H983        H  0.00416568  0.91878900  0.70577211     0.43500
H984        H  0.04535166  0.03566286  0.66718988     0.43500
C985        C  0.11832973  0.74908100  0.54881751    -0.05600
C986        C  0.10315186  0.72726239  0.53922492    -0.33000
C987        C  0.11587668  0.70401635  0.52937793     0.36200
C988        C  0.14446492  0.70249313  0.52849387    -0.06000
C989        C  0.15962756  0.72430353  0.53866078    -0.32900
C990        C  0.14670436  0.74735910  0.54905241     0.36100
H991        H  0.08127754  0.72840997  0.53903452     0.16500
O992        O  0.10005200  0.68335483  0.51975218    -0.60400
H993        H  0.18151282  0.72355735  0.53843287     0.16500
O994        O  0.16198369  0.76854586  0.55836397    -0.60500
H995        H  0.16184559  0.76669569  0.57830477     0.43500
H996        H  0.09597867  0.67189903  0.53572742     0.43500
C997        C  0.07809276  0.82405980  0.60941854    -0.05600
C998        C  0.05759171  0.84383926  0.61042051    -0.33000
C999        C  0.05755768  0.86449434  0.62960062     0.36200
C1000       C  0.07781666  0.86575124  0.64976902    -0.06000
C1001       C  0.09729483  0.84491731  0.65007040    -0.32900
C1002       C  0.09790994  0.82473609  0.63005153     0.36100
H1003       H  0.04302380  0.84568696  0.59427668     0.16500
O1004       O  0.03911668  0.88496839  0.62631924    -0.60400
H1005       H  0.11403667  0.84570094  0.66406516     0.16500
O1006       O  0.11952468  0.80740346  0.62963250    -0.60500
H1007       H  0.13383139  0.81705733  0.61938575     0.43500
H1008       H  0.04769885  0.89795962  0.61364835     0.43500
C1009       C  0.84415934  0.95266952  0.47499806    -0.05600
C1010       C  0.82642303  0.94929436  0.49692294    -0.33000
C1011       C  0.82627442  0.96790751  0.51839565     0.36200
C1012       C  0.84407986  0.99011758  0.51807306    -0.06000
C1013       C  0.86201135  0.99322993  0.49641875    -0.32900
C1014       C  0.86240570  0.97457788  0.47509522     0.36100
H1015       H  0.81268774  0.93220228  0.49736579     0.16500
O1016       O  0.80879811  0.96424601  0.53959010    -0.60400
H1017       H  0.87635754  0.00983784  0.49642857     0.16500
O1018       O  0.88218982  0.97640270  0.45570201    -0.60500
H1019       H  0.88310281  0.99570439  0.45019230     0.43500
H1020       H  0.79074157  0.96935589  0.53254553     0.43500
C1021       C  0.97583592  0.75037642  0.39849868    -0.05600
C1022       C  0.96219326  0.72611064  0.40419214    -0.33000
C1023       C  0.96945365  0.70199452  0.39127010     0.36200
C1024       C  0.99050771  0.70190179  0.37202330    -0.06000
C1025       C  0.00333869  0.72634689  0.36549893    -0.32900
C1026       C  0.99646892  0.75036112  0.37881928     0.36100
H1027       H  0.94631847  0.72568195  0.41926596     0.16500
O1028       O  0.95618910  0.67855538  0.39805852    -0.60400
H1029       H  0.01948864  0.72672861  0.35071500     0.16500
O1030       O  0.00955647  0.77382963  0.37185716    -0.60500
H1031       H  0.02828054  0.77180722  0.37874461     0.43500
H1032       H  0.94093906  0.67722492  0.38513064     0.43500
C1033       C  0.91065024  0.82162416  0.43426056    -0.05600
C1034       C  0.89776841  0.82831784  0.40983251    -0.33000
C1035       C  0.87766345  0.84815079  0.40897117     0.36200
C1036       C  0.87004357  0.86177345  0.43285835    -0.06000
C1037       C  0.87785849  0.85018716  0.45757715    -0.32900
C1038       C  0.89789034  0.83004835  0.45848844     0.36100
H1039       H  0.90570288  0.82072985  0.39090355     0.16500
O1040       O  0.86854715  0.85679508  0.38427902    -0.60400
H1041       H  0.86973709  0.85736577  0.47646587     0.16500
O1042       O  0.90402122  0.81858088  0.48293949    -0.60500
H1043       H  0.91069337  0.83356159  0.49448174     0.43500
H1044       H  0.85343280  0.84445349  0.37973118     0.43500
C1045       C  0.00258833  0.79810837  0.47654689    -0.05600
C1046       C  0.02184189  0.77724941  0.47693082    -0.33000
C1047       C  0.04150621  0.77596126  0.49733763     0.36200
C1048       C  0.04182992  0.79556953  0.51800576    -0.06000
C1049       C  0.02260360  0.81643842  0.51745473    -0.32900
C1050       C  0.00323902  0.81792383  0.49701965     0.36100
H1051       H  0.02159463  0.76179873  0.46143016     0.16500
O1052       O  0.05962700  0.75495923  0.49740404    -0.60400
H1053       H  0.02313477  0.83237974  0.53244889     0.16500
O1054       O  0.98631789  0.83992918  0.49620292    -0.60500
H1055       H  0.97386392  0.83768762  0.51175360     0.43500
H1056       H  0.07149451  0.75805846  0.48154873     0.43500
C1057       C  0.00239924  0.83853934  0.39536561    -0.05600
C1058       C  0.00313032  0.83640321  0.36719887    -0.33000
C1059       C  0.02137892  0.85193192  0.35197265     0.36200
C1060       C  0.03900820  0.87021826  0.36503653    -0.06000
C1061       C  0.03780983  0.87238601  0.39336935    -0.32900
C1062       C  0.01990061  0.85653200  0.40847444     0.36100
H1063       H  0.98958921  0.82253901  0.35698418     0.16500
O1064       O  0.02266682  0.84807265  0.32459500    -0.60400
H1065       H  0.05055830  0.88669687  0.40394442     0.16500
O1066       O  0.01902449  0.85935870  0.43600129    -0.60500
H1067       H  0.03355476  0.84742244  0.44297783     0.43500
H1068       H  0.00539400  0.85523745  0.31733708     0.43500
C1069       C  0.91142585  0.99273143  0.36053810    -0.05600
C1070       C  0.91425582  0.96490859  0.35550155    -0.33000
C1071       C  0.90002114  0.94558243  0.37052792     0.36200
C1072       C  0.88207242  0.95382045  0.39118632    -0.06000
C1073       C  0.87709147  0.98166089  0.39409708    -0.32900
C1074       C  0.89137437  0.00096236  0.37910838     0.36100
H1075       H  0.92752371  0.95759170  0.33988991     0.16500
O1076       O  0.90264787  0.91883752  0.36353020    -0.60400
H1077       H  0.86220574  0.98903183  0.40818135     0.16500
O1078       O  0.88421493  0.02769518  0.38157901    -0.60500
H1079       H  0.88874478  0.03281987  0.40040439     0.43500
H1080       H  0.92155370  0.91387116  0.36808101     0.43500
C1081       C  0.99364445  0.99127087  0.32077828    -0.05600
C1082       C  0.98922785  0.96695686  0.33466348    -0.33000
C1083       C  0.00903518  0.94684943  0.33571036     0.36200
C1084       C  0.03434864  0.95121542  0.32349552    -0.06000
C1085       C  0.03886781  0.97544388  0.30926469    -0.32900
C1086       C  0.01858195  0.99529516  0.30758014     0.36100
H1087       H  0.97095681  0.96406890  0.34614523     0.16500
O1088       O  0.00421903  0.92397831  0.35070018    -0.60400
H1089       H  0.05819612  0.97902068  0.29959024     0.16500
O1090       O  0.02348446  0.01872919  0.29351987    -0.60500
H1091       H  0.02063713  0.01397901  0.27428967     0.43500
H1092       H  0.99239419  0.91250381  0.33929992     0.43500
C1093       C  0.91244428  0.19335874  0.45603317    -0.05600
C1094       C  0.91982660  0.21662923  0.44149274    -0.33000
C1095       C  0.90811914  0.24179699  0.44718279     0.36200
C1096       C  0.88827577  0.24411701  0.46755726    -0.06000
C1097       C  0.88012814  0.22069380  0.48140211    -0.32900
C1098       C  0.89218271  0.19555581  0.47599795     0.36100
H1099       H  0.93545514  0.21554355  0.42620651     0.16500
O1100       O  0.91630406  0.26399358  0.43264079    -0.60400
H1101       H  0.86487673  0.22193355  0.49705834     0.16500
O1102       O  0.88337493  0.17315135  0.48979002    -0.60500
H1103       H  0.88937859  0.17575163  0.50871009     0.43500
H1104       H  0.93302558  0.27038557  0.44166905     0.43500
C1105       C  0.91236608  0.10339930  0.48571928    -0.05600
C1106       C  0.88479596  0.10804257  0.48983275    -0.33000
C1107       C  0.87012080  0.09195387  0.50784998     0.36200
C1108       C  0.88308320  0.07070357  0.52171225    -0.06000
C1109       C  0.91060421  0.06566359  0.51698549    -0.32900
C1110       C  0.92517965  0.08169259  0.49883156     0.36100
H1111       H  0.87457014  0.12400306  0.47889743     0.16500
O1112       O  0.84328022  0.09744391  0.51207779    -0.60400
H1113       H  0.92070110  0.04908069  0.52716449     0.16500
O1114       O  0.95198625  0.07625504  0.49425770    -0.60500
H1115       H  0.95221379  0.06394537  0.47845480     0.43500
H1116       H  0.84302829  0.11279339  0.52495976     0.43500
C1117       C  0.95894849  0.08193442  0.35420048    -0.05600
C1118       C  0.97885343  0.08149211  0.37455032    -0.33000
C1119       C  0.97817486  0.09914553  0.39654420     0.36200
C1120       C  0.95823101  0.11962902  0.39835056    -0.06000
C1121       C  0.93924477  0.12123842  0.37718481    -0.32900
C1122       C  0.93911436  0.10256983  0.35578250     0.36100
H1123       H  0.99324091  0.06508865  0.37572886     0.16500
O1124       O  0.99535804  0.09383859  0.41761506    -0.60400
H1125       H  0.92239189  0.13510006  0.37851599     0.16500
O1126       O  0.91736066  0.10270103  0.33866588    -0.60500
H1127       H  0.92093650  0.11764609  0.32576405     0.43500
H1128       H  0.98586250  0.08025573  0.42893957     0.43500
C1129       C  0.15050763  0.87212790  0.48547846    -0.05600
C1130       C  0.15543629  0.84423747  0.48590944    -0.33000
C1131       C  0.14056232  0.82719628  0.50292360     0.36200
C1132       C  0.12006975  0.83808820  0.51936506    -0.06000
C1133       C  0.11406831  0.86584921  0.51754313    -0.32900
C1134       C  0.12913565  0.88289037  0.50067738     0.36100
H1135       H  0.17085452  0.83563269  0.47301191     0.16500
O1136       O  0.14661895  0.80012472  0.50373457    -0.60400
H1137       H  0.09768115  0.87437507  0.52930202     0.16500
O1138       O  0.12243185  0.90979376  0.49840113    -0.60500
H1139       H  0.12336173  0.91735772  0.51691293     0.43500
H1140       H  0.16379096  0.79886787  0.51397526     0.43500
C1141       C  0.16545254  0.92175935  0.40004987    -0.05600
C1142       C  0.16819881  0.90370725  0.37816464    -0.33000
C1143       C  0.14906524  0.90271193  0.35715376     0.36200
C1144       C  0.12648390  0.92034197  0.35713513    -0.06000
C1145       C  0.12496520  0.93955326  0.37806000    -0.32900
C1146       C  0.14368361  0.94032814  0.39910970     0.36100
H1147       H  0.18356712  0.88816619  0.37851772     0.16500
O1148       O  0.15114308  0.88223183  0.33865240    -0.60400
H1149       H  0.10734636  0.95229173  0.38026074     0.16500
O1150       O  0.13787822  0.95671687  0.42066186    -0.60500
H1151       H  0.14277545  0.97526489  0.41471391     0.43500
H1152       H  0.16499802  0.88845456  0.32555433     0.43500
C1153       C  0.12201374  0.95540186  0.63771645    -0.05600
C1154       C  0.14575007  0.96519372  0.64958229    -0.33000
C1155       C  0.16229377  0.98341885  0.63573450     0.36200
C1156       C  0.15446824  0.99312944  0.61027113    -0.06000
C1157       C  0.13072438  0.98327278  0.59827626    -0.32900
C1158       C  0.11467186  0.96418318  0.61169927     0.36100
H1159       H  0.15166846  0.95839070  0.66951649     0.16500
O1160       O  0.18559017  0.99228625  0.64767258    -0.60400
H1161       H  0.12469999  0.99040427  0.57847633     0.16500
O1162       O  0.09173379  0.95456721  0.59944611    -0.60500
H1163       H  0.07668824  0.96529310  0.60721191     0.43500
H1164       H  0.19937214  0.97842110  0.64321166     0.43500
C1165       C  0.19642684  0.95188083  0.49387591    -0.05600
C1166       C  0.20795934  0.97734384  0.48822335    -0.33000
C1167       C  0.20888514  0.99780789  0.50791322     0.36200
C1168       C  0.19822895  0.99303537  0.53388022    -0.06000
C1169       C  0.18780520  0.96728703  0.53985413    -0.32900
C1170       C  0.18695315  0.94683277  0.52030397     0.36100
H1171       H  0.21606798  0.98155624  0.46834360     0.16500
O1172       O  0.22082117  0.02214775  0.50180611    -0.60400
H1173       H  0.17910285  0.96321007  0.55951138     0.16500
O1174       O  0.17488116  0.92271540  0.52683353    -0.60500
H1175       H  0.18763550  0.91349834  0.53923786     0.43500
H1176       H  0.20851024  0.03106222  0.48873226     0.43500
C1177       C  0.06389753  0.20003983  0.60791443    -0.05600
C1178       C  0.07624129  0.22364616  0.59798557    -0.33000
C1179       C  0.06948679  0.24917727  0.60843653     0.36200
C1180       C  0.05039405  0.25142629  0.62956471    -0.06000
C1181       C  0.03899280  0.22772323  0.64020523    -0.32900
C1182       C  0.04555819  0.20229019  0.62958374     0.36100
H1183       H  0.09037859  0.22242230  0.58132028     0.16500
O1184       O  0.08156065  0.27175571  0.59767807    -0.60400
H1185       H  0.02435296  0.22886360  0.65644004     0.16500
O1186       O  0.03370575  0.17974688  0.64049335    -0.60500
H1187       H  0.04235426  0.17743203  0.65837371     0.43500
H1188       H  0.07058322  0.27642235  0.58154957     0.43500
C1189       C  0.03340961  0.10979113  0.61167978    -0.05600
C1190       C  0.02950864  0.11447287  0.63920181    -0.33000
C1191       C  0.01233485  0.09788160  0.65435565     0.36200
C1192       C  0.99919088  0.07584543  0.64197991    -0.06000
C1193       C  0.00393377  0.07060978  0.61451674    -0.32900
C1194       C  0.02110488  0.08731393  0.59939489     0.36100
H1195       H  0.04033979  0.13056264  0.64919438     0.16500
O1196       O  0.00851893  0.10346501  0.68118002    -0.60400
H1197       H  0.99465334  0.05326356  0.60486777     0.16500
O1198       O  0.02677062  0.08098115  0.57299540    -0.60500
H1199       H  0.00930036  0.08190981  0.56325133     0.43500
H1200       H  0.99756168  0.12026443  0.68158367     0.43500
C1201       C  0.02738686  0.15449848  0.53381571    -0.05600
C1202       C  0.03290430  0.16559810  0.50824033    -0.33000
C1203       C  0.01362705  0.16468862  0.48742042     0.36200
C1204       C  0.98836387  0.15216816  0.49181311    -0.06000
C1205       C  0.98238777  0.14229665  0.51772820    -0.32900
C1206       C  0.00136782  0.14375714  0.53867874     0.36100
H1207       H  0.05240876  0.17476069  0.50424145     0.16500
O1208       O  0.01936479  0.17676965  0.46312434    -0.60400
H1209       H  0.96322667  0.13241166  0.52165754     0.16500
O1210       O  0.99476778  0.13283960  0.56325253    -0.60500
H1211       H  0.98207798  0.14590441  0.57161082     0.43500
H1212       H  0.03389419  0.16565188  0.45490877     0.43500
C1213       C  0.16315093  0.08366360  0.56713854    -0.05600
C1214       C  0.14177999  0.08167901  0.54845076    -0.33000
C1215       C  0.12070209  0.10046051  0.54762092     0.36200
C1216       C  0.12053302  0.12314894  0.56508647    -0.06000
C1217       C  0.14291149  0.12636596  0.58243722    -0.32900
C1218       C  0.16376775  0.10698111  0.58379518     0.36100
H1219       H  0.13944851  0.06365341  0.53627959     0.16500
O1220       O  0.09885433  0.09451009  0.53162726    -0.60400
H1221       H  0.14316098  0.14247678  0.59716865     0.16500
O1222       O  0.18279826  0.10983638  0.60364434    -0.60500
H1223       H  0.19598419  0.12311054  0.59641111     0.43500
H1224       H  0.08744453  0.08208240  0.54248445     0.43500
C1225       C  0.29003223  0.85268950  0.47101030    -0.05600
C1226       C  0.26608603  0.84317041  0.48287165    -0.33000
C1227       C  0.24110981  0.85512867  0.47681408     0.36200
C1228       C  0.23959281  0.87658397  0.45803226    -0.06000
C1229       C  0.26341398  0.88537776  0.44535534    -0.32900
C1230       C  0.28844136  0.87374163  0.45174497     0.36100
H1231       H  0.26674775  0.82693754  0.49759107     0.16500
O1232       O  0.21823902  0.84522640  0.48893733    -0.60400
H1233       H  0.26277601  0.90200839  0.43108779     0.16500
O1234       O  0.31127518  0.88372043  0.43955746    -0.60500
H1235       H  0.31434384  0.87183648  0.42373226     0.43500
H1236       H  0.21961228  0.85052747  0.50819278     0.43500
C1237       C  0.41738928  0.82706455  0.43694489    -0.05600
C1238       C  0.41961241  0.80380679  0.42083919    -0.33000
C1239       C  0.44000507  0.80164685  0.40141886     0.36200
C1240       C  0.45870493  0.82291133  0.39803352    -0.06000
C1241       C  0.45604446  0.84642149  0.41367912    -0.32900
C1242       C  0.43549553  0.84871074  0.43283895     0.36100
H1243       H  0.40596154  0.78688641  0.42377284     0.16500
O1244       O  0.44220954  0.77816821  0.38683004    -0.60400
H1245       H  0.47002307  0.86313960  0.41115312     0.16500
O1246       O  0.43364722  0.87203093  0.44771883    -0.60500
H1247       H  0.42164274  0.88413152  0.43711074     0.43500
H1248       H  0.42891727  0.77999121  0.37196605     0.43500
C1249       C  0.29188603  0.01190284  0.63161199    -0.05600
C1250       C  0.26930218  0.01676562  0.64811798    -0.33000
C1251       C  0.24477527  0.02570012  0.63689538     0.36200
C1252       C  0.24225898  0.02877101  0.60874878    -0.06000
C1253       C  0.26482067  0.02437722  0.59233411    -0.32900
C1254       C  0.28951913  0.01628226  0.60349105     0.36100
H1255       H  0.27068749  0.01377916  0.66974123     0.16500
O1256       O  0.22329530  0.03094910  0.65354605    -0.60400
H1257       H  0.26308221  0.02658606  0.57063334     0.16500
O1258       O  0.31099187  0.01193219  0.58651500    -0.60500
H1259       H  0.30940796  0.99272376  0.58087640     0.43500
H1260       H  0.22608695  0.04973760  0.65993464     0.43500
C1261       C  0.36617164  0.92045113  0.60386168    -0.05600
C1262       C  0.34231293  0.90624912  0.59805737    -0.33000
C1263       C  0.34167271  0.88687115  0.57756995     0.36200
C1264       C  0.36519890  0.88137866  0.56251388    -0.06000
C1265       C  0.38897054  0.89586188  0.56801290    -0.32900
C1266       C  0.38962585  0.91523861  0.58851338     0.36100
H1267       H  0.32390447  0.91044589  0.60915094     0.16500
O1268       O  0.31763142  0.87436154  0.57162558    -0.60400
H1269       H  0.40719347  0.89208605  0.55646605     0.16500
O1270       O  0.41320496  0.92913136  0.59308786    -0.60500
H1271       H  0.42353856  0.91776212  0.60601591     0.43500
H1272       H  0.31559953  0.85991793  0.58537772     0.43500
C1273       C  0.74899497  0.93971182  0.36909767    -0.05600
C1274       C  0.77373921  0.95191062  0.36257463    -0.33000
C1275       C  0.79761093  0.94396046  0.37548826     0.36200
C1276       C  0.79704420  0.92361612  0.39550988    -0.06000
C1277       C  0.77269287  0.90993608  0.40053111    -0.32900
C1278       C  0.74880187  0.91774092  0.38742675     0.36100
H1279       H  0.77447406  0.96845866  0.34821527     0.16500
O1280       O  0.82133683  0.95655427  0.36859735    -0.60400
H1281       H  0.77195603  0.89384120  0.41539773     0.16500
O1282       O  0.72524726  0.90432068  0.39337922    -0.60500
H1283       H  0.72471254  0.88877521  0.38074530     0.43500
H1284       H  0.82878078  0.94577767  0.35344886     0.43500
C1285       C  0.62680453  0.91073386  0.34724909    -0.05600
C1286       C  0.62499188  0.89305518  0.32513464    -0.33000
C1287       C  0.60643899  0.87161738  0.32518521     0.36200
C1288       C  0.58903501  0.86790340  0.34742946    -0.06000
C1289       C  0.59188904  0.88472902  0.37004447    -0.32900
C1290       C  0.61045708  0.90597703  0.37009834     0.36100
H1291       H  0.63759900  0.89614473  0.30750653     0.16500
O1292       O  0.60474953  0.85523963  0.30292845    -0.60400
H1293       H  0.57906818  0.88198669  0.38757999     0.16500
O1294       O  0.61222274  0.92205337  0.39259059    -0.60500
H1295       H  0.59797179  0.93602541  0.39025055     0.43500
H1296       H  0.61733290  0.84005668  0.30661812     0.43500
C1297       C  0.75042408  0.09395140  0.53548712    -0.05600
C1298       C  0.75277323  0.06605797  0.53031645    -0.33000
C1299       C  0.77592821  0.05178448  0.53770386     0.36200
C1300       C  0.79685631  0.06504424  0.55140332    -0.06000
C1301       C  0.79465765  0.09282128  0.55697570    -0.32900
C1302       C  0.77171964  0.10742727  0.54876815     0.36100
H1303       H  0.73678269  0.05527357  0.51993383     0.16500
O1304       O  0.77779013  0.02472625  0.53177865    -0.60400
H1305       H  0.81107951  0.10329882  0.56699320     0.16500
O1306       O  0.77044950  0.13471782  0.55362167    -0.60500
H1307       H  0.76272182  0.13638493  0.57200463     0.43500
H1308       H  0.78473836  0.02393323  0.51302478     0.43500
C1309       C  0.67523600  0.07931958  0.44100497    -0.05600
C1310       C  0.65587652  0.05855136  0.44147017    -0.33000
C1311       C  0.65573333  0.03838316  0.42182419     0.36200
C1312       C  0.67497655  0.03886243  0.40081911    -0.06000
C1313       C  0.69382463  0.06014233  0.39977471    -0.32900
C1314       C  0.69405151  0.08030916  0.41963314     0.36100
H1315       H  0.64115623  0.05738381  0.45763764     0.16500
O1316       O  0.63697817  0.01799924  0.42379139    -0.60400
H1317       H  0.70874121  0.06093729  0.38377151     0.16500
O1318       O  0.71342150  0.10015982  0.41848981    -0.60500
H1319       H  0.70526912  0.11486991  0.40756159     0.43500
H1320       H  0.64555463  0.00400976  0.43534125     0.43500
C1321       C  0.41748301  0.04479770  0.65677443    -0.05600
C1322       C  0.43907999  0.04317113  0.63844420    -0.33000
C1323       C  0.45898763  0.06321717  0.63762271     0.36200
C1324       C  0.45764960  0.08534210  0.65553103    -0.06000
C1325       C  0.43546979  0.08754528  0.67307858    -0.32900
C1326       C  0.41549056  0.06751465  0.67381745     0.36100
H1327       H  0.44092340  0.02598905  0.62499342     0.16500
O1328       O  0.48020051  0.06031256  0.62001107    -0.60400
H1329       H  0.43383447  0.10458698  0.68672499     0.16500
O1330       O  0.39416834  0.07039329  0.69128350    -0.60500
H1331       H  0.40099869  0.06399381  0.70901055     0.43500
H1332       H  0.47336110  0.06704042  0.60240642     0.43500
C1333       C  0.58639832  0.13363259  0.61094946    -0.05600
C1334       C  0.58791501  0.11062600  0.59443946    -0.33000
C1335       C  0.60852434  0.10778941  0.57544174     0.36200
C1336       C  0.62843840  0.12805020  0.57283785    -0.06000
C1337       C  0.62756149  0.15063279  0.59002488    -0.32900
C1338       C  0.60673539  0.15354431  0.60899691     0.36100
H1339       H  0.57272118  0.09486653  0.59584144     0.16500
O1340       O  0.60884580  0.08514949  0.55942965    -0.60400
H1341       H  0.64247916  0.16659720  0.58811380     0.16500
O1342       O  0.60566920  0.17657066  0.62440147    -0.60500
H1343       H  0.61953238  0.17400520  0.63864465     0.43500
H1344       H  0.59574190  0.08895323  0.54470980     0.43500
C1345       C  0.56480107  0.08110461  0.78201438    -0.05600
C1346       C  0.57590026  0.07364715  0.75715668    -0.33000
C1347       C  0.56783952  0.08646746  0.73330288     0.36200
C1348       C  0.54859171  0.10765635  0.73396132    -0.06000
C1349       C  0.53754741  0.11523152  0.75897277    -0.32900
C1350       C  0.54537052  0.10201598  0.78284487     0.36100
H1351       H  0.59039112  0.05723400  0.75611993     0.16500
O1352       O  0.57838205  0.07742389  0.70935225    -0.60400
H1353       H  0.52251562  0.13114083  0.76000779     0.16500
O1354       O  0.53382363  0.10965380  0.80683425    -0.60500
H1355       H  0.54603188  0.12370088  0.81429866     0.43500
H1356       H  0.59508982  0.08817677  0.70656458     0.43500
C1357       C  0.67125998  0.04216628  0.89228718    -0.05600
C1358       C  0.66503038  0.06636454  0.87854947    -0.33000
C1359       C  0.64515257  0.06700834  0.85848237     0.36200
C1360       C  0.63080345  0.04317352  0.85185057    -0.06000
C1361       C  0.64167253  0.01835777  0.86084172    -0.32900
C1362       C  0.66210975  0.01770880  0.88051650     0.36100
H1363       H  0.67309608  0.08544606  0.88573595     0.16500
O1364       O  0.63713840  0.09164956  0.84852478    -0.60400
H1365       H  0.63351645  0.99923712  0.85425715     0.16500
O1366       O  0.67189579  0.99302771  0.88837786    -0.60500
H1367       H  0.69029506  0.99193065  0.88048241     0.43500
H1368       H  0.64986791  0.09563264  0.83356649     0.43500
C1369       C  0.69614478  0.96347905  0.02766471    -0.05600
C1370       C  0.70571155  0.95739692  0.00157753    -0.33000
C1371       C  0.70629853  0.97708150  0.98110669     0.36200
C1372       C  0.69738552  0.00368363  0.98639358    -0.06000
C1373       C  0.68933021  0.01010955  0.01278650    -0.32900
C1374       C  0.68805429  0.99036346  0.03308455     0.36100
H1375       H  0.71269371  0.93718844  0.99683265     0.16500
O1376       O  0.71570964  0.97001401  0.95604962    -0.60400
H1377       H  0.68261763  0.03032748  0.01770156     0.16500
O1378       O  0.67781855  0.99754301  0.05778962    -0.60500
H1379       H  0.65880489  0.00300203  0.05446387     0.43500
H1380       H  0.73569470  0.97039883  0.95758763     0.43500
C1381       C  0.62422427  0.82797591  0.05911338    -0.05600
C1382       C  0.62643004  0.84609753  0.03729476    -0.33000
C1383       C  0.64558026  0.86691278  0.03700727     0.36200
C1384       C  0.66471032  0.86955542  0.05823001    -0.06000
C1385       C  0.66435469  0.84952719  0.07850981    -0.32900
C1386       C  0.64448673  0.82925121  0.07924992     0.36100
H1387       H  0.61110758  0.84688852  0.02181357     0.16500
O1388       O  0.64305399  0.88611077  0.01717774    -0.60400
H1389       H  0.67753093  0.85126239  0.09583741     0.16500
O1390       O  0.64302206  0.81325698  0.10183003    -0.60500
H1391       H  0.65672804  0.79890198  0.09901740     0.43500
H1392       H  0.62921520  0.89895353  0.02387058     0.43500
C1393       C  0.49072435  0.79873240  0.98694206    -0.05600
C1394       C  0.48489759  0.81120525  0.01169683    -0.33000
C1395       C  0.50391425  0.81151575  0.03260228     0.36200
C1396       C  0.52952066  0.79965484  0.02877002    -0.06000
C1397       C  0.53480441  0.78586493  0.00453887    -0.32900
C1398       C  0.51559734  0.78525444  0.98373063     0.36100
H1399       H  0.46592677  0.82179297  0.01452461     0.16500
O1400       O  0.49796377  0.82527462  0.05586385    -0.60400
H1401       H  0.55407433  0.77587980  0.00156277     0.16500
O1402       O  0.52101016  0.77095780  0.96062178    -0.60500
H1403       H  0.53527787  0.78138897  0.95109516     0.43500
H1404       H  0.48516050  0.81349658  0.06585630     0.43500
C1405       C  0.41800401  0.92941104  0.78013931    -0.05600
C1406       C  0.39753139  0.94902232  0.78149814    -0.33000
C1407       C  0.38372400  0.95736454  0.75822211     0.36200
C1408       C  0.39035170  0.94608228  0.73293412    -0.06000
C1409       C  0.41016070  0.92563136  0.73185072    -0.32900
C1410       C  0.42386352  0.91722922  0.75517978     0.36100
H1411       H  0.39269527  0.95845716  0.80063976     0.16500
O1412       O  0.36455299  0.97729104  0.76034715    -0.60400
H1413       H  0.41579444  0.91675573  0.71267204     0.16500
O1414       O  0.44443653  0.89875005  0.75298649    -0.60500
H1415       H  0.43541556  0.88081125  0.75261672     0.43500
H1416       H  0.37477718  0.99455696  0.75973425     0.43500
C1417       C  0.46253897  0.87109272  0.85423122    -0.05600
C1418       C  0.44417878  0.84939594  0.85185755    -0.33000
C1419       C  0.44345385  0.82832657  0.87094127     0.36200
C1420       C  0.46184617  0.82795521  0.89284969    -0.06000
C1421       C  0.48167436  0.84841413  0.89360009    -0.32900
C1422       C  0.48170937  0.86993152  0.87540082     0.36100
H1423       H  0.42824216  0.84993536  0.83697353     0.16500
O1424       O  0.42240247  0.81033576  0.86972500    -0.60400
H1425       H  0.49508412  0.85032975  0.91071011     0.16500
O1426       O  0.49793781  0.89170358  0.88124319    -0.60500
H1427       H  0.51665536  0.88565285  0.87733079     0.43500
H1428       H  0.42804805  0.79656995  0.85630800     0.43500
C1429       C  0.49883436  0.96095191  0.82339574    -0.05600
C1430       C  0.51719083  0.96161346  0.84501486    -0.33000
C1431       C  0.53702525  0.98165860  0.84670710     0.36200
C1432       C  0.53892510  0.00166545  0.82651147    -0.06000
C1433       C  0.52038062  0.00131780  0.80501330    -0.32900
C1434       C  0.50047885  0.98106940  0.80331131     0.36100
H1435       H  0.51564548  0.94697863  0.86125909     0.16500
O1436       O  0.55317471  0.98266719  0.86920414    -0.60400
H1437       H  0.52142329  0.01670138  0.78943817     0.16500
O1438       O  0.48283237  0.98111763  0.78197312    -0.60500
H1439       H  0.49170253  0.97007403  0.76784673     0.43500
H1440       H  0.56615331  0.96747274  0.86716944     0.43500
C1441       C  0.38337599  0.87601064  0.01624900    -0.05600
C1442       C  0.39865136  0.88882586  0.99630385    -0.33000
C1443       C  0.41387124  0.87359618  0.97803943     0.36200
C1444       C  0.41332037  0.84490546  0.97934697    -0.06000
C1445       C  0.39752950  0.83239725  0.99942959    -0.32900
C1446       C  0.38272548  0.84773628  0.01783355     0.36100
H1447       H  0.39954144  0.91074803  0.99551180     0.16500
O1448       O  0.43070757  0.88705403  0.96055435    -0.60400
H1449       H  0.39651822  0.81064805  0.00121847     0.16500
O1450       O  0.36833333  0.83501984  0.03787948    -0.60500
H1451       H  0.35298405  0.82597880  0.02864308     0.43500
H1452       H  0.41861650  0.89626884  0.94746478     0.43500
C1453       C  0.38711648  0.99844234  0.89610940    -0.05600
C1454       C  0.40751077  0.00789962  0.87846610    -0.33000
C1455       C  0.42398342  0.98999432  0.86397679     0.36200
C1456       C  0.41937110  0.96189215  0.86552525    -0.06000
C1457       C  0.39871204  0.95243043  0.88250213    -0.32900
C1458       C  0.38322583  0.97011501  0.89815586     0.36100
H1459       H  0.41111132  0.02932307  0.87579689     0.16500
O1460       O  0.44493964  0.00034105  0.84903319    -0.60400
H1461       H  0.39456125  0.93096025  0.88407234     0.16500
O1462       O  0.36583809  0.95905626  0.91669544    -0.60500
H1463       H  0.35170984  0.94960761  0.90604345     0.43500
H1464       H  0.46084038  0.99996721  0.86123132     0.43500
C1465       C  0.34476840  0.99775567  0.97565955    -0.05600
C1466       C  0.36678350  0.99662654  0.99359415    -0.33000
C1467       C  0.36814641  0.97693250  0.01391213     0.36200
C1468       C  0.34688241  0.95816799  0.01724699    -0.06000
C1469       C  0.32505392  0.95900066  0.99904056    -0.32900
C1470       C  0.32401771  0.97842270  0.97824106     0.36100
H1471       H  0.38346572  0.01069862  0.99139092     0.16500
O1472       O  0.39088015  0.97564434  0.02970722    -0.60400
H1473       H  0.30865453  0.94457834  0.00098289     0.16500
O1474       O  0.30215306  0.97900677  0.96123888    -0.60500
H1475       H  0.30480549  0.96357785  0.94871335     0.43500
H1476       H  0.40293679  0.96245964  0.02055335     0.43500
C1477       C  0.50335030  0.11592807  0.89977285    -0.05600
C1478       C  0.49368031  0.09518787  0.88279048    -0.33000
C1479       C  0.51126769  0.07781236  0.86928531     0.36200
C1480       C  0.53935275  0.08233371  0.87031443    -0.06000
C1481       C  0.54916210  0.10308954  0.88713580    -0.32900
C1482       C  0.53159946  0.11907638  0.90246123     0.36100
H1483       H  0.47226335  0.09198355  0.87985277     0.16500
O1484       O  0.50053986  0.05610917  0.85577535    -0.60400
H1485       H  0.57061924  0.10711593  0.88860087     0.16500
O1486       O  0.54256921  0.13716660  0.92031957    -0.60500
H1487       H  0.54284880  0.12759154  0.93792778     0.43500
H1488       H  0.50187587  0.04067549  0.86853399     0.43500
C1489       C  0.37266758  0.08895256  0.94044979    -0.05600
C1490       C  0.39391641  0.08802374  0.95931932    -0.33000
C1491       C  0.41384246  0.10789465  0.96041459     0.36200
C1492       C  0.41336710  0.13013521  0.94234400    -0.06000
C1493       C  0.39056591  0.13287407  0.92550184    -0.32900
C1494       C  0.37036730  0.11271780  0.92448694     0.36100
H1495       H  0.39713118  0.07014176  0.97155132     0.16500
O1496       O  0.43544542  0.10348793  0.97724976    -0.60400
H1497       H  0.38931663  0.14932324  0.91116916     0.16500
O1498       O  0.35001598  0.11571029  0.90603991    -0.60500
H1499       H  0.33598841  0.12648133  0.91545238     0.43500
H1500       H  0.44719583  0.09033020  0.96772235     0.43500
C1501       C  0.47174015  0.87949258  0.22858109    -0.05600
C1502       C  0.48742918  0.89349560  0.24751732    -0.33000
C1503       C  0.49624137  0.88082100  0.27118578     0.36200
C1504       C  0.49037607  0.85324851  0.27580220    -0.06000
C1505       C  0.47447395  0.83919036  0.25695184    -0.32900
C1506       C  0.46469644  0.85232530  0.23368763     0.36100
H1507       H  0.49319116  0.91434106  0.24374072     0.16500
O1508       O  0.51196385  0.89517050  0.28894744    -0.60400
H1509       H  0.46954088  0.81808049  0.26031973     0.16500
O1510       O  0.44957002  0.83807241  0.21538415    -0.60500
H1511       H  0.43085914  0.83849144  0.22256164     0.43500
H1512       H  0.49901025  0.90536856  0.30034202     0.43500
C1513       C  0.53845675  0.84468041  0.10829260    -0.05600
C1514       C  0.53366382  0.83716733  0.13515687    -0.33000
C1515       C  0.51673624  0.85276713  0.15159755     0.36200
C1516       C  0.50414312  0.87593494  0.14095222    -0.06000
C1517       C  0.50963982  0.88387812  0.11429359    -0.32900
C1518       C  0.52684650  0.86850032  0.09799894     0.36100
H1519       H  0.54323254  0.81933792  0.14347197     0.16500
O1520       O  0.51146800  0.84441964  0.17748577    -0.60400
H1521       H  0.50037368  0.90196268  0.10604253     0.16500
O1522       O  0.53243261  0.87690292  0.07215389    -0.60500
H1523       H  0.51517119  0.87537991  0.06211499     0.43500
H1524       H  0.52685145  0.85119427  0.18838502     0.43500
C1525       C  0.41255140  0.91564323  0.15150640    -0.05600
C1526       C  0.40010238  0.89130414  0.14336189    -0.33000
C1527       C  0.38156008  0.89072588  0.12202057     0.36200
C1528       C  0.37436515  0.91491098  0.10848399    -0.06000
C1529       C  0.38220705  0.93951654  0.12053845    -0.32900
C1530       C  0.40102099  0.94008655  0.14191399     0.36100
H1531       H  0.40729666  0.87217062  0.15132884     0.16500
O1532       O  0.37330763  0.86604072  0.11236596    -0.60400
H1533       H  0.37486359  0.95863429  0.11299709     0.16500
O1534       O  0.40732870  0.96454031  0.15333624    -0.60500
H1535       H  0.41563290  0.97551055  0.13874497     0.43500
H1536       H  0.35753661  0.86096125  0.12360732     0.43500
C1537       C  0.62284266  0.11471358  0.01754376    -0.05600
C1538       C  0.62141288  0.08620902  0.01783571    -0.33000
C1539       C  0.63720084  0.07069424  0.00037414     0.36200
C1540       C  0.65464536  0.08353760  0.98208322    -0.06000
C1541       C  0.65543268  0.11179937  0.98081209    -0.32900
C1542       C  0.64015019  0.12744631  0.99870023     0.36100
H1543       H  0.60782843  0.07577390  0.03148313     0.16500
O1544       O  0.63521022  0.04300780  0.00118026    -0.60400
H1545       H  0.66825710  0.12177450  0.96612208     0.16500
O1546       O  0.64303269  0.15502732  0.99798206    -0.60500
H1547       H  0.65903690  0.15892716  0.00937147     0.43500
H1548       H  0.62259975  0.03817354  0.98640869     0.43500
C1549       C  0.54279670  0.15795732  0.01812692    -0.05600
C1550       C  0.54366387  0.17886618  0.99879819    -0.33000
C1551       C  0.52414015  0.18050613  0.97816782     0.36200
C1552       C  0.50334991  0.16108178  0.97670172    -0.06000
C1553       C  0.50293822  0.13994861  0.99569736    -0.32900
C1554       C  0.52217095  0.13832239  0.01622435     0.36100
H1555       H  0.55940733  0.19407672  0.99972788     0.16500
O1556       O  0.52496078  0.20166446  0.96023389    -0.60400
H1557       H  0.48786678  0.12408117  0.99435047     0.16500
O1558       O  0.52159417  0.11637812  0.03322617    -0.60500
H1559       H  0.50590037  0.11943510  0.04533003     0.43500
H1560       H  0.54024135  0.19757763  0.94792067     0.43500
C1561       C  0.64720409  0.01229306  0.27561103    -0.05600
C1562       C  0.66204743  0.01257005  0.25140038    -0.33000
C1563       C  0.64988516  0.02061981  0.22711644     0.36200
C1564       C  0.62254961  0.02844545  0.22681315    -0.06000
C1565       C  0.60806340  0.02949331  0.25100002    -0.32900
C1566       C  0.62015524  0.02167781  0.27530863     0.36100
H1567       H  0.68286282  0.00576648  0.25112726     0.16500
O1568       O  0.66459622  0.01982388  0.20365350    -0.60400
H1569       H  0.58699543  0.03552441  0.25088939     0.16500
O1570       O  0.60481798  0.02203267  0.29837129    -0.60500
H1571       H  0.60748444  0.04039073  0.30610219     0.43500
H1572       H  0.66860576  0.03899540  0.19922227     0.43500
C1573       C  0.62355195  0.99474561  0.13857160    -0.05600
C1574       C  0.64190585  0.97674236  0.15059841    -0.33000
C1575       C  0.65566299  0.95751396  0.13494213     0.36200
C1576       C  0.65087622  0.95624299  0.10703615    -0.06000
C1577       C  0.63118622  0.97273370  0.09534177    -0.32900
C1578       C  0.61756161  0.99199374  0.11082645     0.36100
H1579       H  0.64590336  0.97779427  0.17205438     0.16500
O1580       O  0.67277061  0.93919777  0.14698602    -0.60400
H1581       H  0.62655534  0.97083188  0.07404928     0.16500
O1582       O  0.59743558  0.00701766  0.09900912    -0.60500
H1583       H  0.60674289  0.01949171  0.08633963     0.43500
H1584       H  0.68502013  0.94979655  0.15880720     0.43500
C1585       C  0.54661660  0.99363543  0.18205061    -0.05600
C1586       C  0.52199970  0.99881785  0.19529487    -0.33000
C1587       C  0.50113398  0.97945185  0.19544970     0.36200
C1588       C  0.50475739  0.95446920  0.18227599    -0.06000
C1589       C  0.52950550  0.94915886  0.16952553    -0.32900
C1590       C  0.55026857  0.96839542  0.16929698     0.36100
H1591       H  0.51888418  0.01801140  0.20538252     0.16500
O1592       O  0.47762710  0.98478714  0.20912797    -0.60400
H1593       H  0.53251207  0.93027422  0.15883401     0.16500
O1594       O  0.57322565  0.96302720  0.15475567    -0.60500
H1595       H  0.58375053  0.95015018  0.16594967     0.43500
H1596       H  0.46719541  0.99704507  0.19716791     0.43500
C1597       C  0.57959830  0.12484612  0.10771968    -0.05600
C1598       C  0.59771567  0.12720626  0.12953369    -0.33000
C1599       C  0.59877633  0.10753556  0.15014943     0.36200
C1600       C  0.58084787  0.08509736  0.14996875    -0.06000
C1601       C  0.56175768  0.08389146  0.12896641    -0.32900
C1602       C  0.56136185  0.10270707  0.10803862     0.36100
H1603       H  0.61306227  0.14279930  0.12944981     0.16500
O1604       O  0.61943615  0.10909024  0.16847547    -0.60400
H1605       H  0.54890014  0.06633298  0.12660080     0.16500
O1606       O  0.54481702  0.09730651  0.08648354    -0.60500
H1607       H  0.55517732  0.08473697  0.07482914     0.43500
H1608       H  0.61332199  0.12244590  0.18208269     0.43500
C1609       C  0.11793641  0.52601466  0.77785651    -0.05600
C1610       C  0.10258331  0.51446901  0.75714857    -0.33000
C1611       C  0.11482129  0.50644894  0.73294152     0.36200
C1612       C  0.14314179  0.50872423  0.72967284    -0.06000
C1613       C  0.15851802  0.51998874  0.75068102    -0.32900
C1614       C  0.14600199  0.52912970  0.77442127     0.36100
H1615       H  0.08099553  0.51169111  0.75976839     0.16500
O1616       O  0.09902191  0.49538943  0.71304779    -0.60400
H1617       H  0.18022114  0.52205107  0.74854438     0.16500
O1618       O  0.16146492  0.54019678  0.79455152    -0.60500
H1619       H  0.16258115  0.55976123  0.79016638     0.43500
H1620       H  0.09093503  0.51107081  0.70348086     0.43500
C1621       C  0.08331194  0.62943820  0.89310584    -0.05600
C1622       C  0.10693006  0.62416833  0.87796037    -0.33000
C1623       C  0.10759602  0.60378941  0.85828006     0.36200
C1624       C  0.08430888  0.58801909  0.85312941    -0.06000
C1625       C  0.05971053  0.59712521  0.86410679    -0.32900
C1626       C  0.05901445  0.61719303  0.88403858     0.36100
H1627       H  0.12589199  0.63354608  0.88366816     0.16500
O1628       O  0.13198591  0.59706302  0.84692812    -0.60400
H1629       H  0.04077150  0.58757578  0.85926425     0.16500
O1630       O  0.03457374  0.62237190  0.89579997    -0.60500
H1631       H  0.02602072  0.63631458  0.88422325     0.43500
H1632       H  0.13440112  0.60991997  0.83173655     0.43500
C1633       C  0.04827934  0.66000096  0.98716957    -0.05600
C1634       C  0.05426135  0.65071197  0.01325591    -0.33000
C1635       C  0.03465723  0.65022993  0.03364932     0.36200
C1636       C  0.00818328  0.65959355  0.02849384    -0.06000
C1637       C  0.00261889  0.67064029  0.00288317    -0.32900
C1638       C  0.02230905  0.67087857  0.98233240     0.36100
H1639       H  0.07401540  0.64260215  0.01782197     0.16500
O1640       O  0.04122302  0.63850225  0.05784036    -0.60400
H1641       H  0.98278487  0.67888519  0.99861801     0.16500
O1642       O  0.01624730  0.68262148  0.95795794    -0.60500
H1643       H  0.00225599  0.67084729  0.94967642     0.43500
H1644       H  0.05390323  0.65125500  0.06668445     0.43500
C1645       C  0.87156027  0.59058354  0.05845004    -0.05600
C1646       C  0.87508161  0.60658564  0.08172550    -0.33000
C1647       C  0.89564889  0.62605971  0.08353986     0.36200
C1648       C  0.91334536  0.63072682  0.06156698    -0.06000
C1649       C  0.90738289  0.61759896  0.03709337    -0.32900
C1650       C  0.88749332  0.59738884  0.03552584     0.36100
H1651       H  0.86403410  0.60175564  0.09998246     0.16500
O1652       O  0.90064584  0.63754525  0.10822909    -0.60400
H1653       H  0.91987887  0.62034823  0.01949196     0.16500
O1654       O  0.88586125  0.58311341  0.01192479    -0.60500
H1655       H  0.90077358  0.56972556  0.01274850     0.43500
H1656       H  0.88695253  0.65205453  0.11015399     0.43500
C1657       C  0.97086032  0.38180950  0.77318790    -0.05600
C1658       C  0.98658184  0.35819262  0.77417414    -0.33000
C1659       C  0.99486062  0.34511434  0.75045802     0.36200
C1660       C  0.98735002  0.35558511  0.72503168    -0.06000
C1661       C  0.97098030  0.37890661  0.72414939    -0.32900
C1662       C  0.96269371  0.39191942  0.74794202     0.36100
H1663       H  0.99257869  0.34986312  0.79346549     0.16500
O1664       O  0.01070127  0.32242080  0.75245146    -0.60400
H1665       H  0.96505444  0.38750369  0.70491521     0.16500
O1666       O  0.94802428  0.41541013  0.74626130    -0.60500
H1667       H  0.92898627  0.40953538  0.74398798     0.43500
H1668       H  0.02951745  0.32926542  0.75368301     0.43500
C1669       C  0.00222851  0.45611379  0.82507676    -0.05600
C1670       C  0.02743694  0.44962123  0.83636414    -0.33000
C1671       C  0.04826200  0.46881742  0.83767486     0.36200
C1672       C  0.04411147  0.49525269  0.82769578    -0.06000
C1673       C  0.01887536  0.50177893  0.81636059    -0.32900
C1674       C  0.99804593  0.48246011  0.81497637     0.36100
H1675       H  0.03089608  0.42968089  0.84482329     0.16500
O1676       O  0.07200439  0.46197087  0.85027162    -0.60400
H1677       H  0.01538124  0.52185314  0.80825085     0.16500
O1678       O  0.97413382  0.48913687  0.80263915    -0.60500
H1679       H  0.96450249  0.50092106  0.81566764     0.43500
H1680       H  0.08115042  0.44911844  0.83792955     0.43500
C1681       C  0.86816501  0.41832326  0.88886450    -0.05600
C1682       C  0.87377352  0.39417160  0.87473225    -0.33000
C1683       C  0.89350434  0.39323996  0.85442322     0.36200
C1684       C  0.90865125  0.41666715  0.84801253    -0.06000
C1685       C  0.89887272  0.44156715  0.85777263    -0.32900
C1686       C  0.87895203  0.44261379  0.87792888     0.36100
H1687       H  0.86508381  0.37522191  0.88157675     0.16500
O1688       O  0.90045168  0.36856828  0.84381858    -0.60400
H1689       H  0.90749480  0.46053347  0.85129639     0.16500
O1690       O  0.87186504  0.46756492  0.88746803    -0.60500
H1691       H  0.85503420  0.47231962  0.87770405     0.43500
H1692       H  0.88896520  0.36649987  0.82756097     0.43500
C1693       C  0.84211600  0.45665375  0.98220191    -0.05600
C1694       C  0.86203893  0.47692980  0.98191335    -0.33000
C1695       C  0.86253059  0.49728490  0.00139494     0.36200
C1696       C  0.84258499  0.49813740  0.02178219    -0.06000
C1697       C  0.82303871  0.47748018  0.02266649    -0.32900
C1698       C  0.82262800  0.45690396  0.00303823     0.36100
H1699       H  0.87791493  0.47666446  0.96684287     0.16500
O1700       O  0.88327069  0.51573752  0.00072336    -0.60400
H1701       H  0.80785052  0.47746047  0.03842618     0.16500
O1702       O  0.80291639  0.43741419  0.00432957    -0.60500
H1703       H  0.78913838  0.44296865  0.99090948     0.43500
H1704       H  0.89666153  0.50909502  0.01410938     0.43500
C1705       C  0.00031023  0.37437667  0.86082141    -0.05600
C1706       C  0.02208487  0.36228034  0.84705091    -0.33000
C1707       C  0.04168578  0.34738047  0.86089429     0.36200
C1708       C  0.03939151  0.34375249  0.88882752    -0.06000
C1709       C  0.01811961  0.35577251  0.90288281    -0.32900
C1710       C  0.99892064  0.37147031  0.88930244     0.36100
H1711       H  0.02418428  0.36407370  0.82544778     0.16500
O1712       O  0.06324386  0.33668168  0.84708525    -0.60400
H1713       H  0.01683855  0.35361822  0.92463137     0.16500
O1714       O  0.98024281  0.38535647  0.90437138    -0.60500
H1715       H  0.96830682  0.37134104  0.91242731     0.43500
H1716       H  0.05559942  0.32221460  0.83551585     0.43500
C1717       C  0.91943783  0.34576878  0.01405029    -0.05600
C1718       C  0.89925941  0.36278928  0.02460249    -0.33000
C1719       C  0.88348903  0.37911899  0.00780278     0.36200
C1720       C  0.88606786  0.37719162  0.97944770    -0.06000
C1721       C  0.90617285  0.35987958  0.96900322    -0.32900
C1722       C  0.92334022  0.34515495  0.98592995     0.36100
H1723       H  0.89574591  0.36386524  0.04613884     0.16500
O1724       O  0.86642732  0.39739474  0.01970559    -0.60400
H1725       H  0.90908252  0.35760521  0.94751152     0.16500
O1726       O  0.94498559  0.33184803  0.97478500    -0.60500
H1727       H  0.93717583  0.31737183  0.96331576     0.43500
H1728       H  0.87668287  0.41464403  0.02026152     0.43500
C1729       C  0.03933278  0.30343470  0.96850576    -0.05600
C1730       C  0.03773110  0.32505345  0.98677977    -0.33000
C1731       C  0.01808065  0.32548385  0.00710936     0.36200
C1732       C  0.99958362  0.30386995  0.00973996    -0.06000
C1733       C  0.00069973  0.28249647  0.99113646    -0.32900
C1734       C  0.02033183  0.28219961  0.97055163     0.36100
H1735       H  0.05137106  0.34212908  0.98487935     0.16500
O1736       O  0.01604442  0.34794058  0.02327800    -0.60400
H1737       H  0.98649392  0.26586039  0.99272394     0.16500
O1738       O  0.02149738  0.26056147  0.95325909    -0.60500
H1739       H  0.00535349  0.26227565  0.94150327     0.43500
H1740       H  0.03166067  0.34693027  0.03577151     0.43500
C1741       C  0.91585417  0.42707545  0.21534830    -0.05600
C1742       C  0.92276218  0.41414675  0.23956294    -0.33000
C1743       C  0.90993363  0.42116251  0.26377911     0.36200
C1744       C  0.88964197  0.44132395  0.26400747    -0.06000
C1745       C  0.88129248  0.45263423  0.23939039    -0.32900
C1746       C  0.89434679  0.44577838  0.21519927     0.36100
H1747       H  0.93902958  0.39946498  0.23995939     0.16500
O1748       O  0.91753259  0.40828351  0.28713020    -0.60400
H1749       H  0.86538885  0.46769926  0.23898490     0.16500
O1750       O  0.88571391  0.45713046  0.19141449    -0.60500
H1751       H  0.89082293  0.47652537  0.19245374     0.43500
H1752       H  0.93465144  0.41713146  0.29269927     0.43500
C1753       C  0.88699442  0.49942373  0.09938996    -0.05600
C1754       C  0.88599391  0.47192064  0.09265120    -0.33000
C1755       C  0.90065454  0.45262215  0.10736037     0.36200
C1756       C  0.91736698  0.46076163  0.12919571    -0.06000
C1757       C  0.91736981  0.48837332  0.13627980    -0.32900
C1758       C  0.90261427  0.50751699  0.12167432     0.36100
H1759       H  0.87368736  0.46517383  0.07586974     0.16500
O1760       O  0.89675484  0.42581605  0.10130537    -0.60400
H1761       H  0.92850926  0.49577161  0.15338354     0.16500
O1762       O  0.90234982  0.53386899  0.13044585    -0.60500
H1763       H  0.92060193  0.54112041  0.12629373     0.43500
H1764       H  0.90489613  0.42316888  0.08317274     0.43500
C1765       C  0.96491294  0.37164704  0.14267301    -0.05600
C1766       C  0.94537639  0.35083300  0.14276803    -0.33000
C1767       C  0.94514283  0.33042301  0.12308350     0.36200
C1768       C  0.96502578  0.32989251  0.10250547    -0.06000
C1769       C  0.98584104  0.34933257  0.10395510    -0.32900
C1770       C  0.98566859  0.37008350  0.12304205     0.36100
H1771       H  0.92825035  0.35174292  0.15629001     0.16500
O1772       O  0.92338057  0.31326102  0.12245248    -0.60400
H1773       H  0.00075635  0.35101163  0.08810805     0.16500
O1774       O  0.00438791  0.39035540  0.12005613    -0.60500
H1775       H  0.99640357  0.40313492  0.10684213     0.43500
H1776       H  0.92735997  0.29919074  0.13617852     0.43500
C1777       C  0.12800684  0.49710111  0.86494963    -0.05600
C1778       C  0.12982894  0.49868948  0.89332308    -0.33000
C1779       C  0.14589768  0.48058537  0.90788267     0.36200
C1780       C  0.15958104  0.45984422  0.89430698    -0.06000
C1781       C  0.15791932  0.45798603  0.86621198    -0.32900
C1782       C  0.14297722  0.47686894  0.85142896     0.36100
H1783       H  0.11852724  0.51373908  0.90445959     0.16500
O1784       O  0.14786309  0.48315412  0.93538109    -0.60400
H1785       H  0.16881261  0.44217783  0.85565759     0.16500
O1786       O  0.14394288  0.47569934  0.82381858    -0.60500
H1787       H  0.15959696  0.48711560  0.81861719     0.43500
H1788       H  0.13467130  0.47001468  0.94287693     0.43500
C1789       C  0.17368497  0.36636503  0.92944061    -0.05600
C1790       C  0.16635757  0.35472266  0.90456024    -0.33000
C1791       C  0.14556024  0.33558485  0.90307317     0.36200
C1792       C  0.13149962  0.32791135  0.92672012    -0.06000
C1793       C  0.14353213  0.33417474  0.95164906    -0.32900
C1794       C  0.16478889  0.35301530  0.95317113     0.36100
H1795       H  0.17432577  0.36299156  0.88590494     0.16500
O1796       O  0.13675860  0.32737150  0.87813810    -0.60400
H1797       H  0.13607647  0.32557273  0.97024450     0.16500
O1798       O  0.17703979  0.35731331  0.97761789    -0.60500
H1799       H  0.16257024  0.36344331  0.99006177     0.43500
H1800       H  0.14819161  0.31157748  0.87352940     0.43500
C1801       C  0.12603944  0.61203415  0.98161784    -0.05600
C1802       C  0.15422396  0.61187673  0.97907960    -0.33000
C1803       C  0.17017259  0.59553091  0.99589498     0.36200
C1804       C  0.15763486  0.57852116  0.01514029    -0.06000
C1805       C  0.12917746  0.57775636  0.01630155    -0.32900
C1806       C  0.11341220  0.59460467  0.00001361     0.36100
H1807       H  0.16391049  0.62469206  0.96415465     0.16500
O1808       O  0.19779424  0.59637768  0.99330657    -0.60400
H1809       H  0.11892328  0.56397590  0.02990309     0.16500
O1810       O  0.08568954  0.59299842  0.00113448    -0.60500
H1811       H  0.08069823  0.59538036  0.02037136     0.43500
H1812       H  0.20311124  0.61554363  0.99611169     0.43500
C1813       C  0.19756178  0.49663469  0.01615903    -0.05600
C1814       C  0.17609059  0.47818329  0.01376284    -0.33000
C1815       C  0.17601216  0.45838354  0.99355356     0.36200
C1816       C  0.19777372  0.45663634  0.97518783    -0.06000
C1817       C  0.21929467  0.47495897  0.97758850    -0.32900
C1818       C  0.21930948  0.49486988  0.99780064     0.36100
H1819       H  0.15874966  0.47968515  0.02704833     0.16500
O1820       O  0.15364286  0.44217664  0.99070825    -0.60400
H1821       H  0.23619909  0.47385173  0.96371157     0.16500
O1822       O  0.24111888  0.51185763  0.99999839    -0.60500
H1823       H  0.24033804  0.52382835  0.98392645     0.43500
H1824       H  0.15421710  0.42942284  0.00618394     0.43500
C1825       C  0.07195365  0.57779422  0.22356685    -0.05600
C1826       C  0.07331205  0.56270503  0.24738850    -0.33000
C1827       C  0.06484038  0.57392395  0.27184634     0.36200
C1828       C  0.05504383  0.60082973  0.27267048    -0.06000
C1829       C  0.05475423  0.61619812  0.24881708    -0.32900
C1830       C  0.06317940  0.60482407  0.22436572     0.36100
H1831       H  0.07983683  0.54176598  0.24681294     0.16500
O1832       O  0.06542390  0.55805517  0.29458872    -0.60400
H1833       H  0.04750373  0.63688866  0.24899520     0.16500
O1834       O  0.06207714  0.62001456  0.20121380    -0.60500
H1835       H  0.07946418  0.62996992  0.20058535     0.43500
H1836       H  0.04806718  0.54794782  0.29445857     0.43500
C1837       C  0.00108097  0.61480871  0.10710177    -0.05600
C1838       C  0.01738030  0.59600007  0.09379553    -0.33000
C1839       C  0.03592894  0.58038554  0.10815993     0.36200
C1840       C  0.03847426  0.58365043  0.13638580    -0.06000
C1841       C  0.02073426  0.60131084  0.14982689    -0.32900
C1842       C  0.00204678  0.61687707  0.13530303     0.36100
H1843       H  0.01565759  0.59338924  0.07214647     0.16500
O1844       O  0.05095115  0.56157474  0.09441502    -0.60400
H1845       H  0.02144338  0.60333030  0.17154796     0.16500
O1846       O  0.98408366  0.63323117  0.14871936    -0.60500
H1847       H  0.99522868  0.64693400  0.15823783     0.43500
H1848       H  0.04102606  0.54423836  0.09656233     0.43500
C1849       C  0.03498805  0.50468488  0.17762872    -0.05600
C1850       C  0.03933474  0.48015006  0.19131588    -0.33000
C1851       C  0.01943424  0.45987147  0.19150952     0.36200
C1852       C  0.99500199  0.46376641  0.17737331    -0.06000
C1853       C  0.99058109  0.48854138  0.16432231    -0.32900
C1854       C  0.01008701  0.50897966  0.16457141     0.36100
H1855       H  0.05831616  0.47663029  0.20164576     0.16500
O1856       O  0.02427554  0.43619434  0.20513388    -0.60400
H1857       H  0.97263453  0.49160658  0.15242449     0.16500
O1858       O  0.00505946  0.53252566  0.15077126    -0.60500
H1859       H  0.00821499  0.52813842  0.13152343     0.43500
H1860       H  0.01619739  0.43886915  0.22326779     0.43500
C1861       C  0.12880061  0.53922552  0.14760299    -0.05600
C1862       C  0.14324822  0.56292740  0.14108101    -0.33000
C1863       C  0.16311101  0.56294330  0.12103051     0.36200
C1864       C  0.16923818  0.53885079  0.10694593    -0.06000
C1865       C  0.15908648  0.51439430  0.11753649    -0.32900
C1866       C  0.13914253  0.51436810  0.13780160     0.36100
H1867       H  0.13693893  0.58222194  0.14935434     0.16500
O1868       O  0.17367569  0.58729896  0.11283759    -0.60400
H1869       H  0.16519358  0.49509228  0.10946045     0.16500
O1870       O  0.13052671  0.48999156  0.14785584    -0.60500
H1871       H  0.12184268  0.48046941  0.13251477     0.43500
H1872       H  0.18862340  0.59108845  0.12558201     0.43500
C1873       C  0.48758442  0.25229089  0.86929290    -0.05600
C1874       C  0.49724923  0.22709495  0.86037510    -0.33000
C1875       C  0.48959771  0.20302702  0.87350273     0.36200
C1876       C  0.47155671  0.20382452  0.89551935    -0.06000
C1877       C  0.46065138  0.22873399  0.90341506    -0.32900
C1878       C  0.46864859  0.25282401  0.89071981     0.36100
H1879       H  0.51156112  0.22608071  0.84384836     0.16500
O1880       O  0.49953067  0.17874560  0.86445194    -0.60400
H1881       H  0.44677450  0.22967150  0.92032138     0.16500
O1882       O  0.45803573  0.27682014  0.89973872    -0.60500
H1883       H  0.46919531  0.28187626  0.91559047     0.43500
H1884       H  0.51860193  0.17811806  0.87063841     0.43500
C1885       C  0.29357273  0.44781036  0.86745732    -0.05600
C1886       C  0.26876383  0.46031397  0.86179760    -0.33000
C1887       C  0.24511984  0.45254587  0.87546304     0.36200
C1888       C  0.24589087  0.43158863  0.89487480    -0.06000
C1889       C  0.27034372  0.41794757  0.89927422    -0.32900
C1890       C  0.29406491  0.42600008  0.88596894     0.36100
H1891       H  0.26779729  0.47682426  0.84740889     0.16500
O1892       O  0.22119986  0.46500652  0.86904590    -0.60400
H1893       H  0.27129080  0.40153077  0.91377125     0.16500
O1894       O  0.31762744  0.41231845  0.89119002    -0.60500
H1895       H  0.32405212  0.41937708  0.90879411     0.43500
H1896       H  0.22265558  0.48362870  0.87638743     0.43500
C1897       C  0.41818233  0.41758349  0.84343071    -0.05600
C1898       C  0.41862372  0.39794695  0.82295385    -0.33000
C1899       C  0.43805210  0.37732154  0.82307950     0.36200
C1900       C  0.45744416  0.37618795  0.84391021    -0.06000
C1901       C  0.45622064  0.39515742  0.86490352    -0.32900
C1902       C  0.43686694  0.41564782  0.86483933     0.36100
H1903       H  0.40420732  0.39883605  0.80651879     0.16500
O1904       O  0.43791324  0.35852741  0.80272309    -0.60400
H1905       H  0.47065628  0.39447167  0.88133616     0.16500
O1906       O  0.43638241  0.43356068  0.88597362    -0.60500
H1907       H  0.44992450  0.44764361  0.88131641     0.43500
H1908       H  0.44843407  0.36687553  0.78783935     0.43500
C1909       C  0.39120399  0.70708260  0.96937029    -0.05600
C1910       C  0.37748593  0.73184969  0.97192124    -0.33000
C1911       C  0.38960056  0.75600294  0.96311705     0.36200
C1912       C  0.41575147  0.75553398  0.95187769    -0.06000
C1913       C  0.42893285  0.73086009  0.94828610    -0.32900
C1914       C  0.41686784  0.70676467  0.95669825     0.36100
H1915       H  0.35767975  0.73257834  0.98123949     0.16500
O1916       O  0.37586089  0.77994147  0.96579372    -0.60400
H1917       H  0.44905691  0.73035529  0.93962367     0.16500
O1918       O  0.43082769  0.68307073  0.95305474    -0.60500
H1919       H  0.42423575  0.67575517  0.93562514     0.43500
H1920       H  0.36721796  0.78309499  0.94801344     0.43500
C1921       C  0.29252608  0.60049395  0.03075795    -0.05600
C1922       C  0.27005174  0.61540108  0.03968334    -0.33000
C1923       C  0.24634089  0.60210284  0.04797837     0.36200
C1924       C  0.24473643  0.57367714  0.04668871    -0.06000
C1925       C  0.26718842  0.55882104  0.03826913    -0.32900
C1926       C  0.29095582  0.57190497  0.03040526     0.36100
H1927       H  0.27096836  0.63729915  0.04048486     0.16500
O1928       O  0.22508318  0.61695678  0.05779801    -0.60400
H1929       H  0.26629455  0.53693018  0.03777799     0.16500
O1930       O  0.31241922  0.55645525  0.02202673    -0.60500
H1931       H  0.30939764  0.55342323  0.00250890     0.43500
H1932       H  0.21308699  0.62020311  0.04213981     0.43500
C1933       C  0.36879576  0.58390251  0.93659251    -0.05600
C1934       C  0.35145619  0.58668682  0.91433760    -0.33000
C1935       C  0.35098363  0.56715979  0.89387372     0.36200
C1936       C  0.36810748  0.54440140  0.89543201    -0.06000
C1937       C  0.38610392  0.54215838  0.91721326    -0.32900
C1938       C  0.38661442  0.56162168  0.93761320     0.36100
H1939       H  0.33782107  0.60379317  0.91300697     0.16500
O1940       O  0.33369954  0.57057423  0.87250897    -0.60400
H1941       H  0.39951627  0.52489425  0.91883518     0.16500
O1942       O  0.40372352  0.55786744  0.95908147    -0.60500
H1943       H  0.42134212  0.56551284  0.95318142     0.43500
H1944       H  0.31621499  0.56278403  0.87858231     0.43500
C1945       C  0.75039062  0.34871306  0.96932220    -0.05600
C1946       C  0.74895699  0.36850186  0.94889028    -0.33000
C1947       C  0.77206222  0.38245029  0.94018437     0.36200
C1948       C  0.79731329  0.37693177  0.95200648    -0.06000
C1949       C  0.79896799  0.35674512  0.97200570    -0.32900
C1950       C  0.77586113  0.34254791  0.98053916     0.36100
H1951       H  0.72964184  0.37385117  0.94006995     0.16500
O1952       O  0.76936826  0.40285787  0.92157989    -0.60400
H1953       H  0.81826108  0.35215499  0.98130148     0.16500
O1954       O  0.77829726  0.32367206  0.00071109    -0.60500
H1955       H  0.78163574  0.30628369  0.99131142     0.43500
H1956       H  0.76732277  0.39361063  0.90393113     0.43500
C1957       C  0.64594165  0.25007598  0.03289468    -0.05600
C1958       C  0.61758949  0.24888179  0.03499742    -0.33000
C1959       C  0.60456465  0.22512052  0.04317023     0.36200
C1960       C  0.61983188  0.20216521  0.04996262    -0.06000
C1961       C  0.64813890  0.20335446  0.04867485    -0.32900
C1962       C  0.66124345  0.22702531  0.03986234     0.36100
H1963       H  0.60536004  0.26622243  0.02948837     0.16500
O1964       O  0.57683544  0.22424783  0.04353749    -0.60400
H1965       H  0.66002983  0.18564329  0.05371896     0.16500
O1966       O  0.68892289  0.22748950  0.03843134    -0.60500
H1967       H  0.69336224  0.22008899  0.02036242     0.43500
H1968       H  0.57173249  0.22532931  0.06286475     0.43500
C1969       C  0.58585796  0.32445445  0.89604207    -0.05600
C1970       C  0.59005910  0.34753256  0.91196478    -0.33000
C1971       C  0.60980910  0.34777886  0.93207222     0.36200
C1972       C  0.62556273  0.32447440  0.93689336    -0.06000
C1973       C  0.62190517  0.30162607  0.92046338    -0.32900
C1974       C  0.60233516  0.30152994  0.90006471     0.36100
H1975       H  0.57781996  0.36547775  0.90898259     0.16500
O1976       O  0.61309042  0.37078185  0.94721369    -0.60400
H1977       H  0.63377639  0.28350842  0.92383939     0.16500
O1978       O  0.59857752  0.27843971  0.88519078    -0.60500
H1979       H  0.61147223  0.27995288  0.86992229     0.43500
H1980       H  0.62690073  0.38158687  0.93750652     0.43500
C1981       C  0.55029692  0.70670251  0.12993839    -0.05600
C1982       C  0.56743365  0.70631283  0.10724952    -0.33000
C1983       C  0.57441165  0.73025657  0.09377023     0.36200
C1984       C  0.56420023  0.75518608  0.10285556    -0.06000
C1985       C  0.54699811  0.75563401  0.12538256    -0.32900
C1986       C  0.54010542  0.73172627  0.13898542     0.36100
H1987       H  0.57500599  0.68727958  0.09947362     0.16500
O1988       O  0.58955047  0.72887264  0.07059838    -0.60400
H1989       H  0.53855523  0.77454977  0.13232469     0.16500
O1990       O  0.52283357  0.73304514  0.16060886    -0.60500
H1991       H  0.50442814  0.73319415  0.15268852     0.43500
H1992       H  0.60841393  0.72600422  0.07672251     0.43500
C1993       C  0.45600631  0.63233778  0.10656680    -0.05600
C1994       C  0.45555883  0.61216055  0.08671525    -0.33000
C1995       C  0.43559289  0.61180795  0.06688868     0.36200
C1996       C  0.41541671  0.63199393  0.06647567    -0.06000
C1997       C  0.41536090  0.65186301  0.08673715    -0.32900
C1998       C  0.43538505  0.65207836  0.10677908     0.36100
H1999       H  0.47099994  0.59661465  0.08627075     0.16500
O2000       O  0.43602372  0.59145295  0.04807673    -0.60400
H2001       H  0.40007451  0.66756359  0.08678588     0.16500
O2002       O  0.43504790  0.67216497  0.12585284    -0.60500
H2003       H  0.42417362  0.66475229  0.14098344     0.43500
H2004       H  0.44923408  0.59744138  0.03417707     0.43500
C2005       C  0.80027111  0.52928831  0.10283175    -0.05600
C2006       C  0.77532740  0.54117141  0.09660575    -0.33000
C2007       C  0.75171716  0.53329316  0.11017452     0.36200
C2008       C  0.75272385  0.51325728  0.13059154    -0.06000
C2009       C  0.77798961  0.50251568  0.13786041    -0.32900
C2010       C  0.80160112  0.51033006  0.12412662     0.36100
H2011       H  0.77394371  0.55584526  0.08038592     0.16500
O2012       O  0.72761169  0.54470836  0.10259483    -0.60400
H2013       H  0.77934123  0.48725885  0.15353152     0.16500
O2014       O  0.82581408  0.49893961  0.13139796    -0.60500
H2015       H  0.83416485  0.51202123  0.14407536     0.43500
H2016       H  0.72497503  0.56018809  0.11503972     0.43500
C2017       C  0.67685417  0.41607180  0.10468753    -0.05600
C2018       C  0.65770660  0.41789757  0.08382856    -0.33000
C2019       C  0.65663966  0.39839739  0.06346791     0.36200
C2020       C  0.67489915  0.37648206  0.06377318    -0.06000
C2021       C  0.69361190  0.37434183  0.08496489    -0.32900
C2022       C  0.69458675  0.39379214  0.10538053     0.36100
H2023       H  0.64373330  0.43476610  0.08298159     0.16500
O2024       O  0.63771220  0.40108302  0.04340058    -0.60400
H2025       H  0.70775299  0.35761464  0.08565593     0.16500
O2026       O  0.71326804  0.39097383  0.12562762    -0.60500
H2027       H  0.70367593  0.38113389  0.14023465     0.43500
H2028       H  0.64640396  0.41261491  0.02949200     0.43500
C2029       C  0.62739394  0.54226433  0.15610858    -0.05600
C2030       C  0.62648584  0.56166145  0.17676585    -0.33000
C2031       C  0.60645299  0.58170855  0.17702063     0.36200
C2032       C  0.58693732  0.58264431  0.15629114    -0.06000
C2033       C  0.58830175  0.56363303  0.13531102    -0.32900
C2034       C  0.60827826  0.54368870  0.13500433     0.36100
H2035       H  0.64102505  0.56101764  0.19310277     0.16500
O2036       O  0.60606313  0.60009043  0.19773594    -0.60400
H2037       H  0.57354677  0.56390713  0.11915077     0.16500
O2038       O  0.60832615  0.52523124  0.11433526    -0.60500
H2039       H  0.61867130  0.53401668  0.09953341     0.43500
H2040       H  0.59757433  0.59043315  0.21314485     0.43500
C2041       C  0.30032134  0.43425399  0.60640943    -0.05600
C2042       C  0.30056076  0.45542069  0.62538459    -0.33000
C2043       C  0.27681950  0.46363052  0.63855866     0.36200
C2044       C  0.25206718  0.45083102  0.63265002    -0.06000
C2045       C  0.25188291  0.42948738  0.61386381    -0.32900
C2046       C  0.27567041  0.42107906  0.60093551     0.36100
H2047       H  0.31917336  0.46603820  0.62973276     0.16500
O2048       O  0.27796471  0.48476017  0.65645488    -0.60400
H2049       H  0.23304612  0.41957966  0.60865004     0.16500
O2050       O  0.27418998  0.40138244  0.58149720    -0.60500
H2051       H  0.27147780  0.38418126  0.59147809     0.43500
H2052       H  0.27593045  0.50131969  0.64528136     0.43500
C2053       C  0.47727839  0.26084522  0.60484087    -0.05600
C2054       C  0.46369414  0.23662029  0.59906828    -0.33000
C2055       C  0.47020530  0.21266521  0.61269645     0.36200
C2056       C  0.49080112  0.21252603  0.63247169    -0.06000
C2057       C  0.50346029  0.23703841  0.63916267    -0.32900
C2058       C  0.49677547  0.26107098  0.62559707     0.36100
H2059       H  0.44844694  0.23607461  0.58337836     0.16500
O2060       O  0.45671127  0.18936561  0.60596471    -0.60400
H2061       H  0.51910077  0.23750452  0.65445845     0.16500
O2062       O  0.50941706  0.28466032  0.63283309    -0.60500
H2063       H  0.50078738  0.29009095  0.65007462     0.43500
H2064       H  0.44157287  0.18807470  0.61903458     0.43500
C2065       C  0.41470151  0.33187374  0.56508245    -0.05600
C2066       C  0.40130710  0.33741860  0.58958383    -0.33000
C2067       C  0.38075407  0.35675703  0.59103979     0.36200
C2068       C  0.37330963  0.37148884  0.56776645    -0.06000
C2069       C  0.38214965  0.36149738  0.54263292    -0.32900
C2070       C  0.40263571  0.34178812  0.54110243     0.36100
H2071       H  0.40897692  0.32909143  0.60832300     0.16500
O2072       O  0.37110438  0.36399351  0.61596676    -0.60400
H2073       H  0.37475910  0.36982534  0.52391870     0.16500
O2074       O  0.41048326  0.33283902  0.51615526    -0.60500
H2075       H  0.41913612  0.34861278  0.50720755     0.43500
H2076       H  0.35574292  0.35158694  0.61942042     0.43500
C2077       C  0.62645543  0.42611104  0.27868201    -0.05600
C2078       C  0.61057304  0.43500962  0.25713023    -0.33000
C2079       C  0.62244841  0.44445889  0.23328839     0.36200
C2080       C  0.65091210  0.44581111  0.23074489    -0.06000
C2081       C  0.66693577  0.43703420  0.25253881    -0.32900
C2082       C  0.65485956  0.42698403  0.27631078     0.36100
H2083       H  0.58873294  0.43506895  0.25898242     0.16500
O2084       O  0.60588091  0.45370124  0.21309132    -0.60400
H2085       H  0.68877601  0.43799149  0.25116174     0.16500
O2086       O  0.67093877  0.41924990  0.29750514    -0.60500
H2087       H  0.67207918  0.39926407  0.29627740     0.43500
H2088       H  0.60118127  0.43742435  0.20236327     0.43500
C2089       C  0.62386960  0.24778009  0.45820453    -0.05600
C2090       C  0.61008255  0.23077111  0.47617067    -0.33000
C2091       C  0.62213980  0.20724697  0.48611807     0.36200
C2092       C  0.64869841  0.20035893  0.47832560    -0.06000
C2093       C  0.66268796  0.21739983  0.46042317    -0.32900
C2094       C  0.65027138  0.24080566  0.45001686     0.36100
H2095       H  0.58974552  0.23570515  0.48248602     0.16500
O2096       O  0.60779511  0.19125058  0.50371459    -0.60400
H2097       H  0.68304739  0.21233150  0.45414253     0.16500
O2098       O  0.66445937  0.25726432  0.43277501    -0.60500
H2099       H  0.66319847  0.24838634  0.41488707     0.43500
H2100       H  0.61342923  0.19720266  0.52198130     0.43500
C2101       C  0.54779276  0.29972973  0.48427285    -0.05600
C2102       C  0.54665858  0.28070002  0.50540695    -0.33000
C2103       C  0.52684297  0.28244226  0.52575800     0.36200
C2104       C  0.50760466  0.30351223  0.52525254    -0.06000
C2105       C  0.50888214  0.32259204  0.50426642    -0.32900
C2106       C  0.52866615  0.32097157  0.48408351     0.36100
H2107       H  0.56113348  0.26434031  0.50624437     0.16500
O2108       O  0.52579117  0.26283592  0.54538719    -0.60400
H2109       H  0.49496750  0.33951844  0.50393379     0.16500
O2110       O  0.53032803  0.34149667  0.46546644    -0.60500
H2111       H  0.51452009  0.33901108  0.45340524     0.43500
H2112       H  0.54205729  0.26576356  0.55672552     0.43500
C2113       C  0.59172482  0.32171693  0.39261836    -0.05600
C2114       C  0.56709254  0.33038403  0.38127325    -0.33000
C2115       C  0.56639048  0.35094761  0.36158212     0.36200
C2116       C  0.59075741  0.36344840  0.35297738    -0.06000
C2117       C  0.61508546  0.35019205  0.35976760    -0.32900
C2118       C  0.61567066  0.32933996  0.37901341     0.36100
H2119       H  0.54799829  0.32254748  0.38829370     0.16500
O2120       O  0.54183871  0.35803833  0.35092709    -0.60400
H2121       H  0.63414760  0.35789962  0.35216725     0.16500
O2122       O  0.64021539  0.31919678  0.38696995    -0.60500
H2123       H  0.64372296  0.30378471  0.37469332     0.43500
H2124       H  0.53111623  0.36536729  0.36620629     0.43500
C2125       C  0.29922230  0.57493639  0.45073788    -0.05600
C2126       C  0.28045481  0.56095099  0.46656674    -0.33000
C2127       C  0.25715641  0.57370459  0.47590816     0.36200
C2128       C  0.25213619  0.60112639  0.46946528    -0.06000
C2129       C  0.27109917  0.61532081  0.45370854    -0.32900
C2130       C  0.29453804  0.60229854  0.44421340     0.36100
H2131       H  0.28419558  0.54006787  0.47221080     0.16500
O2132       O  0.23968410  0.55920340  0.49188167    -0.60400
H2133       H  0.26770097  0.63639812  0.44869029     0.16500
O2134       O  0.31335893  0.61680017  0.42988838    -0.60500
H2135       H  0.30912217  0.61328363  0.41065628     0.43500
H2136       H  0.24546070  0.56294915  0.51069009     0.43500
C2137       C  0.34557614  0.50140192  0.48548098    -0.05600
C2138       C  0.35627552  0.50862768  0.51065474    -0.33000
C2139       C  0.35647268  0.49035340  0.53219356     0.36200
C2140       C  0.34605323  0.46399393  0.52882547    -0.06000
C2141       C  0.33469597  0.45691948  0.50375491    -0.32900
C2142       C  0.33445285  0.47536261  0.48215235     0.36100
H2143       H  0.36547945  0.52832786  0.51351496     0.16500
O2144       O  0.36876691  0.49794907  0.55577289    -0.60400
H2145       H  0.32614140  0.43694089  0.50082471     0.16500
O2146       O  0.32267747  0.46803600  0.45817875    -0.60500
H2147       H  0.33554997  0.45525037  0.44963366     0.43500
H2148       H  0.35644353  0.51135126  0.56415885     0.43500
C2149       C  0.47588268  0.57061280  0.27574422    -0.05600
C2150       C  0.49234339  0.55786518  0.25665522    -0.33000
C2151       C  0.50108798  0.57170999  0.23367346     0.36200
C2152       C  0.49365651  0.59896876  0.22952011    -0.06000
C2153       C  0.47782695  0.61211178  0.24904905    -0.32900
C2154       C  0.46865291  0.59796518  0.27197170     0.36100
H2155       H  0.49859108  0.53704910  0.25968801     0.16500
O2156       O  0.51737810  0.55848843  0.21555688    -0.60400
H2157       H  0.47223851  0.63314212  0.24633022     0.16500
O2158       O  0.45384328  0.61133323  0.29119811    -0.60500
H2159       H  0.43507121  0.61148499  0.28425759     0.43500
H2160       H  0.53613407  0.56324777  0.22085648     0.43500
C2161       C  0.50657626  0.49388723  0.32394015    -0.05600
C2162       C  0.53196404  0.50069192  0.33466554    -0.33000
C2163       C  0.55324133  0.48204048  0.33518397     0.36200
C2164       C  0.54948187  0.45563564  0.32501711    -0.06000
C2165       C  0.52404045  0.44872714  0.31424245    -0.32900
C2166       C  0.50268893  0.46757620  0.31368987     0.36100
H2167       H  0.53529649  0.52050574  0.34340287     0.16500
O2168       O  0.57702399  0.48938664  0.34740080    -0.60400
H2169       H  0.52071004  0.42865000  0.30611901     0.16500
O2170       O  0.47850958  0.46042258  0.30217892    -0.60500
H2171       H  0.46958799  0.44838768  0.31552979     0.43500
H2172       H  0.58555848  0.50269413  0.33506749     0.43500
C2173       C  0.41410715  0.53518653  0.35023703    -0.05600
C2174       C  0.40319355  0.51087571  0.36028446    -0.33000
C2175       C  0.38313342  0.51111933  0.38047250     0.36200
C2176       C  0.37405743  0.53611949  0.39125037    -0.06000
C2177       C  0.38082736  0.55978555  0.37690419    -0.32900
C2178       C  0.40045756  0.55950213  0.35663054     0.36100
H2179       H  0.41096059  0.49151535  0.35388428     0.16500
O2180       O  0.37253172  0.48689865  0.38886969    -0.60400
H2181       H  0.37307464  0.57920310  0.38350429     0.16500
O2182       O  0.40886773  0.58375588  0.34600621    -0.60500
H2183       H  0.39611541  0.58762304  0.33107211     0.43500
H2184       H  0.38782458  0.47671463  0.39698506     0.43500
C2185       C  0.42356288  0.53150971  0.72211986    -0.05600
C2186       C  0.43768060  0.53139934  0.74650919    -0.33000
C2187       C  0.42496778  0.52326213  0.77039581     0.36200
C2188       C  0.39756798  0.51490006  0.77012248    -0.06000
C2189       C  0.38327911  0.51573185  0.74562273    -0.32900
C2190       C  0.39605667  0.52424472  0.72176886     0.36100
H2191       H  0.45887800  0.53697827  0.74690407     0.16500
O2192       O  0.43985553  0.52286881  0.79374352    -0.60400
H2193       H  0.36226444  0.50957871  0.74490444     0.16500
O2194       O  0.38166704  0.52488226  0.69813112    -0.60500
H2195       H  0.37391470  0.54335928  0.69717255     0.43500
H2196       H  0.44758646  0.50436907  0.79475918     0.43500
C2197       C  0.42272548  0.49795740  0.63676809    -0.05600
C2198       C  0.40337375  0.48246008  0.65059153    -0.33000
C2199       C  0.38643236  0.46459386  0.63658836     0.36200
C2200       C  0.38931358  0.46170769  0.60855833    -0.06000
C2201       C  0.40993848  0.47560542  0.59502988    -0.32900
C2202       C  0.42647039  0.49388084  0.60886171     0.36100
H2203       H  0.40097403  0.48452957  0.67218464     0.16500
O2204       O  0.36793785  0.44915724  0.65044356    -0.60400
H2205       H  0.41321658  0.47225905  0.57366252     0.16500
O2206       O  0.44709978  0.50662361  0.59531310    -0.60500
H2207       H  0.43819194  0.51947724  0.58275217     0.43500
H2208       H  0.35612083  0.46213945  0.66012173     0.43500
C2209       C  0.42030367  0.70505590  0.54362944    -0.05600
C2210       C  0.39911489  0.70481095  0.52481028    -0.33000
C2211       C  0.38542302  0.72863312  0.51793373     0.36200
C2212       C  0.39306599  0.75345469  0.52971018    -0.06000
C2213       C  0.41430432  0.75365978  0.54860922    -0.32900
C2214       C  0.42788166  0.72976225  0.55556469     0.36100
H2215       H  0.39317827  0.68605022  0.51525663     0.16500
O2216       O  0.36492195  0.72740169  0.49934046    -0.60400
H2217       H  0.42082746  0.77252065  0.55765822     0.16500
O2218       O  0.44912309  0.73097037  0.57331320    -0.60500
H2219       H  0.46547937  0.73295638  0.56186849     0.43500
H2220       H  0.37387354  0.72944160  0.48155051     0.43500
C2221       C  0.41404597  0.61594606  0.51622432    -0.05600
C2222       C  0.42808916  0.59649986  0.50130264    -0.33000
C2223       C  0.41430182  0.57906742  0.48396748     0.36200
C2224       C  0.38603865  0.58139433  0.48093804    -0.06000
C2225       C  0.37192186  0.60044412  0.49656507    -0.32900
C2226       C  0.38579516  0.61767381  0.51424621     0.36100
H2227       H  0.44978792  0.59445361  0.50357527     0.16500
O2228       O  0.42857361  0.55936267  0.47068748    -0.60400
H2229       H  0.35016878  0.60229580  0.49481212     0.16500
O2230       O  0.37166715  0.63547410  0.53015708    -0.60500
H2231       H  0.36274982  0.64822014  0.51751960     0.43500
H2232       H  0.42810117  0.54338554  0.48283907     0.43500
C2233       C  0.45726102  0.63152936  0.60545591    -0.05600
C2234       C  0.43350733  0.62474165  0.61956931    -0.33000
C2235       C  0.43377536  0.60504796  0.63982927     0.36200
C2236       C  0.45822545  0.59193690  0.64675427    -0.06000
C2237       C  0.48248970  0.60337032  0.63710031    -0.32900
C2238       C  0.48214362  0.62339986  0.61698134     0.36100
H2239       H  0.41412282  0.63217712  0.61255906     0.16500
O2240       O  0.40953947  0.59613891  0.64998905    -0.60400
H2241       H  0.50193726  0.59616752  0.64377506     0.16500
O2242       O  0.50625149  0.63430486  0.60883374    -0.60500
H2243       H  0.50862372  0.65076903  0.62001542     0.43500
H2244       H  0.40490519  0.60911697  0.66451971     0.43500
C2245       C  0.56939558  0.69464512  0.39368096    -0.05600
C2246       C  0.54828770  0.69491277  0.37461263    -0.33000
C2247       C  0.53990566  0.71904820  0.36227943     0.36200
C2248       C  0.55267653  0.74362615  0.36890232    -0.06000
C2249       C  0.57425712  0.74327909  0.38736370    -0.32900
C2250       C  0.58276115  0.71912288  0.39956088     0.36100
H2251       H  0.53763919  0.67645349  0.36970223     0.16500
O2252       O  0.51848900  0.71847153  0.34470207    -0.60400
H2253       H  0.58422810  0.76199037  0.39294765     0.16500
O2254       O  0.60269252  0.72010461  0.41876763    -0.60500
H2255       H  0.61978569  0.72247200  0.40857042     0.43500
H2256       H  0.50215302  0.72031804  0.35618676     0.43500
C2257       C  0.54076030  0.60604309  0.39231564    -0.05600
C2258       C  0.53456999  0.61350352  0.36576554    -0.33000
C2259       C  0.51724429  0.59750503  0.35025020     0.36200
C2260       C  0.50562001  0.57417531  0.36163883    -0.06000
C2261       C  0.51203969  0.56661305  0.38813336    -0.32900
C2262       C  0.52989340  0.58219790  0.40335442     0.36100
H2263       H  0.54345157  0.63148693  0.35695905     0.16500
O2264       O  0.51072217  0.60550974  0.32454939    -0.60400
H2265       H  0.50318971  0.54857938  0.39696991     0.16500
O2266       O  0.53593760  0.57453779  0.42928851    -0.60500
H2267       H  0.55066936  0.56107038  0.42753024     0.43500
H2268       H  0.52575567  0.59894713  0.31302982     0.43500
C2269       C  0.53394891  0.65232418  0.46996032    -0.05600
C2270       C  0.53987099  0.66376372  0.49525393    -0.33000
C2271       C  0.52023152  0.66514609  0.51556638     0.36200
C2272       C  0.49398873  0.65506085  0.51085837    -0.06000
C2273       C  0.48768498  0.64474161  0.48527114    -0.32900
C2274       C  0.50740905  0.64293881  0.46504991     0.36100
H2275       H  0.55993501  0.67149816  0.49942144     0.16500
O2276       O  0.52702235  0.67628197  0.53999121    -0.60400
H2277       H  0.46768207  0.63684368  0.48118965     0.16500
O2278       O  0.50069722  0.63091669  0.44103274    -0.60500
H2279       H  0.49831688  0.61139471  0.44525267     0.43500
H2280       H  0.51872683  0.69454567  0.53998315     0.43500
C2281       C  0.74595244  0.52415416  0.39577773    -0.05600
C2282       C  0.74456657  0.50384514  0.37597640    -0.33000
C2283       C  0.76760439  0.49555039  0.36176744     0.36200
C2284       C  0.79291675  0.50723992  0.36750309    -0.06000
C2285       C  0.79431949  0.52787371  0.38705193    -0.32900
C2286       C  0.77107605  0.53655821  0.40090166     0.36100
H2287       H  0.72561787  0.49378341  0.37186990     0.16500
O2288       O  0.76526147  0.47517666  0.34312962    -0.60400
H2289       H  0.81362183  0.53696788  0.39203287     0.16500
O2290       O  0.77353220  0.55570168  0.42077427    -0.60500
H2291       H  0.77427035  0.57329049  0.41114781     0.43500
H2292       H  0.76748901  0.45814580  0.35354670     0.43500
C2293       C  0.65944498  0.49341303  0.39718084    -0.05600
C2294       C  0.66542374  0.48968089  0.36984919    -0.33000
C2295       C  0.65057069  0.47135725  0.35429959     0.36200
C2296       C  0.62966586  0.45617339  0.36626571    -0.06000
C2297       C  0.62323220  0.46046987  0.39354668    -0.32900
C2298       C  0.63783726  0.47919500  0.40898496     0.36100
H2299       H  0.68134520  0.50135550  0.36038686     0.16500
O2300       O  0.65739089  0.46763704  0.32774740    -0.60400
H2301       H  0.60664984  0.44950634  0.40280162     0.16500
O2302       O  0.63047195  0.48414812  0.43525512    -0.60500
H2303       H  0.63258724  0.46669153  0.44494739     0.43500
H2304       H  0.65054830  0.48387749  0.31816197     0.43500
C2305       C  0.62693664  0.62017165  0.44085061    -0.05600
C2306       C  0.65095985  0.62505097  0.42629501    -0.33000
C2307       C  0.67253074  0.60641489  0.42661923     0.36200
C2308       C  0.67058501  0.58221097  0.44189957    -0.06000
C2309       C  0.64804205  0.57940425  0.45907087    -0.32900
C2310       C  0.62633144  0.59734469  0.45816336     0.36100
H2311       H  0.65240527  0.64195843  0.41253737     0.16500
O2312       O  0.69406660  0.61123309  0.40996563    -0.60400
H2313       H  0.64531460  0.56106939  0.47077825     0.16500
O2314       O  0.60337523  0.59052999  0.47222360    -0.60500
H2315       H  0.59381475  0.57711252  0.46082913     0.43500
H2316       H  0.70648007  0.62277137  0.42065538     0.43500
C2317       C  0.74604090  0.37701357  0.54600157    -0.05600
C2318       C  0.76220594  0.39012634  0.52675611    -0.33000
C2319       C  0.78588329  0.37814952  0.51720162     0.36200
C2320       C  0.79360367  0.35234308  0.52649951    -0.06000
C2321       C  0.77756740  0.33913617  0.54588469    -0.32900
C2322       C  0.75400516  0.35148185  0.55590127     0.36100
H2323       H  0.75631892  0.40975849  0.51891881     0.16500
O2324       O  0.80106761  0.39162963  0.49827662    -0.60400
H2325       H  0.78344009  0.31938940  0.55339731     0.16500
O2326       O  0.73867619  0.33823763  0.57484491    -0.60500
H2327       H  0.72515823  0.32778064  0.56437532     0.43500
H2328       H  0.79465398  0.38479094  0.48059120     0.43500
C2329       C  0.65747559  0.37015694  0.52007497    -0.05600
C2330       C  0.66835238  0.34531563  0.51184217    -0.33000
C2331       C  0.65369191  0.32829301  0.49469213     0.36200
C2332       C  0.62839160  0.33666284  0.48488067    -0.06000
C2333       C  0.61755014  0.36153321  0.49304891    -0.32900
C2334       C  0.63172433  0.37807190  0.51099809     0.36100
H2335       H  0.68809134  0.33903418  0.51898240     0.16500
O2336       O  0.66467264  0.30408520  0.48676762    -0.60400
H2337       H  0.59806142  0.36807769  0.48546814     0.16500
O2338       O  0.62080333  0.40238324  0.51871490    -0.60500
H2339       H  0.60830695  0.39794895  0.53374082     0.43500
H2340       H  0.65803201  0.29063842  0.50009604     0.43500
C2341       C  0.70002392  0.45098845  0.51544941    -0.05600
C2342       C  0.71418083  0.47519691  0.52031019    -0.33000
C2343       C  0.71593793  0.49537640  0.50029652     0.36200
C2344       C  0.70352633  0.49136528  0.47499846    -0.06000
C2345       C  0.69039817  0.46676422  0.46992525    -0.32900
C2346       C  0.68832892  0.44683348  0.48984936     0.36100
H2347       H  0.72384242  0.47848041  0.53965349     0.16500
O2348       O  0.73054598  0.51847086  0.50524262    -0.60400
H2349       H  0.68066449  0.46328719  0.45069459     0.16500
O2350       O  0.67299144  0.42426855  0.48471412    -0.60500
H2351       H  0.68340980  0.41360841  0.47134007     0.43500
H2352       H  0.71979649  0.52884380  0.51860920     0.43500
C2353       C  0.56980460  0.38408388  0.72396834    -0.05600
C2354       C  0.56372679  0.39950869  0.74679191    -0.33000
C2355       C  0.55576874  0.38699633  0.77089139     0.36200
C2356       C  0.55297691  0.35849258  0.77221465    -0.06000
C2357       C  0.55914295  0.34308171  0.74919656    -0.32900
C2358       C  0.56785009  0.35568718  0.72529616     0.36100
H2359       H  0.56503805  0.42139870  0.74587147     0.16500
O2360       O  0.54970191  0.40299429  0.79267487    -0.60400
H2361       H  0.55723505  0.32123734  0.74972779     0.16500
O2362       O  0.57359887  0.34015881  0.70310559    -0.60500
H2363       H  0.59338132  0.33702662  0.70387374     0.43500
H2364       H  0.56726190  0.40637647  0.80172532     0.43500
C2365       C  0.54101054  0.38041693  0.63604821    -0.05600
C2366       C  0.54240162  0.38066848  0.60759071    -0.33000
C2367       C  0.52501556  0.36469368  0.59204827     0.36200
C2368       C  0.50538146  0.34868218  0.60477747    -0.06000
C2369       C  0.50326710  0.34885512  0.63292272    -0.32900
C2370       C  0.52122093  0.36408187  0.64864438     0.36100
H2371       H  0.55701877  0.39327477  0.59722834     0.16500
O2372       O  0.52745185  0.36476250  0.56445709    -0.60400
H2373       H  0.48792053  0.33670532  0.64278603     0.16500
O2374       O  0.52040294  0.36129023  0.67617514    -0.60500
H2375       H  0.50311955  0.36969365  0.68192579     0.43500
H2376       H  0.51348641  0.37760546  0.55794358     0.43500
C2377       C  0.54338390  0.46231755  0.67672310    -0.05600
C2378       C  0.52484626  0.46389556  0.69816292    -0.33000
C2379       C  0.50478843  0.48409590  0.69864203     0.36200
C2380       C  0.50305906  0.50307784  0.67741452    -0.06000
C2381       C  0.52193003  0.50170297  0.65629710    -0.32900
C2382       C  0.54187858  0.48166323  0.65579613     0.36100
H2383       H  0.52586612  0.44939662  0.71456341     0.16500
O2384       O  0.48756742  0.48568655  0.72031110    -0.60400
H2385       H  0.52056006  0.51555685  0.63938084     0.16500
O2386       O  0.55846231  0.47992440  0.63365197    -0.60500
H2387       H  0.57132507  0.49524987  0.63536535     0.43500
H2388       H  0.47591680  0.46936617  0.71920196     0.43500
C2389       C  0.67308475  0.41379207  0.60916677    -0.05600
C2390       C  0.66555937  0.43922345  0.61943752    -0.33000
C2391       C  0.64647581  0.44137318  0.64027622     0.36200
C2392       C  0.63393156  0.41772123  0.65076122    -0.06000
C2393       C  0.64624251  0.39274566  0.64473337    -0.32900
C2394       C  0.66556752  0.39063369  0.62422440     0.36100
H2395       H  0.67301715  0.45774563  0.61061281     0.16500
O2396       O  0.63989793  0.46677471  0.64900491    -0.60400
H2397       H  0.63833429  0.37423823  0.65348314     0.16500
O2398       O  0.67385166  0.36532403  0.61642839    -0.60500
H2399       H  0.68989183  0.36134158  0.62773715     0.43500
H2400       H  0.64985878  0.46910896  0.66620460     0.43500
C2401       C  0.14869865  0.94405932  0.77045246    -0.05600
C2402       C  0.16337268  0.93002057  0.75059964    -0.33000
C2403       C  0.15025486  0.91994928  0.72745928     0.36200
C2404       C  0.12232515  0.92420560  0.72400369    -0.06000
C2405       C  0.10785500  0.93827800  0.74377762    -0.32900
C2406       C  0.12068146  0.94791270  0.76691437     0.36100
H2407       H  0.18489664  0.92682342  0.75306486     0.16500
O2408       O  0.16491290  0.90661903  0.70810536    -0.60400
H2409       H  0.08649239  0.94232275  0.74098047     0.16500
O2410       O  0.10591090  0.96257257  0.78523095    -0.60500
H2411       H  0.09670728  0.94890004  0.79669464     0.43500
H2412       H  0.17262353  0.92105019  0.69648764     0.43500
C2413       C  0.25254824  0.01197226  0.86684353    -0.05600
C2414       C  0.27745838  0.99965273  0.86124206    -0.33000
C2415       C  0.30101500  0.00747929  0.87499346     0.36200
C2416       C  0.30001299  0.02820129  0.89460544    -0.06000
C2417       C  0.27547110  0.04168038  0.89897051    -0.32900
C2418       C  0.25186532  0.03364031  0.88548330     0.36100
H2419       H  0.27859952  0.98326098  0.84677657     0.16500
O2420       O  0.32509778  0.99528239  0.86856268    -0.60400
H2421       H  0.27429034  0.05778072  0.91375096     0.16500
O2422       O  0.22816536  0.04695496  0.89097749    -0.60500
H2423       H  0.22139925  0.03884572  0.90802896     0.43500
H2424       H  0.32296875  0.97597063  0.87368781     0.43500
C2425       C  0.15292680  0.74935143  0.96934247    -0.05600
C2426       C  0.16020136  0.72479032  0.98161399    -0.33000
C2427       C  0.14744565  0.70048187  0.97431510     0.36200
C2428       C  0.12722029  0.70043329  0.95421651    -0.06000
C2429       C  0.12109703  0.72471330  0.94088503    -0.32900
C2430       C  0.13363686  0.74900515  0.94831897     0.36100
H2431       H  0.17524662  0.72448230  0.99750134     0.16500
O2432       O  0.15545784  0.67677113  0.98635545    -0.60400
H2433       H  0.10573816  0.72509016  0.92530302     0.16500
O2434       O  0.12677141  0.77230950  0.93488504    -0.60500
H2435       H  0.10998904  0.77877275  0.94374508     0.43500
H2436       H  0.14978840  0.67821718  0.00550227     0.43500
C2437       C  0.25162258  0.85150696  0.03192408    -0.05600
C2438       C  0.25122708  0.86972611  0.05370996    -0.33000
C2439       C  0.27467360  0.88361277  0.06163470     0.36200
C2440       C  0.29897553  0.87992809  0.04728331    -0.06000
C2441       C  0.29946009  0.86132693  0.02581406    -0.32900
C2442       C  0.27617205  0.84708454  0.01820657     0.36100
H2443       H  0.23251652  0.87361320  0.06440418     0.16500
O2444       O  0.27314904  0.90203045  0.08226706    -0.60400
H2445       H  0.31793748  0.85797904  0.01459328     0.16500
O2446       O  0.27749028  0.82963061  0.99673257    -0.60500
H2447       H  0.27320957  0.84081704  0.98065071     0.43500
H2448       H  0.27243648  0.89105461  0.09902727     0.43500
C2449       C  0.17846647  0.87577489  0.93758036    -0.05600
C2450       C  0.15913436  0.89653036  0.93779802    -0.33000
C2451       C  0.15900234  0.91646476  0.91785395     0.36200
C2452       C  0.17841897  0.91589031  0.89700905    -0.06000
C2453       C  0.19748698  0.89485254  0.89644887    -0.32900
C2454       C  0.19779342  0.87502452  0.91665007     0.36100
H2455       H  0.14418470  0.89762468  0.95375354     0.16500
O2456       O  0.14015059  0.93675777  0.91940404    -0.60400
H2457       H  0.21257374  0.89403120  0.88060784     0.16500
O2458       O  0.21713044  0.85515913  0.91573151    -0.60500
H2459       H  0.23286144  0.86269688  0.92565270     0.43500
H2460       H  0.12402897  0.92969607  0.90973994     0.43500
C2461       C  0.98966320  0.75090609  0.13362469    -0.05600
C2462       C  0.96774843  0.75123599  0.11552669    -0.33000
C2463       C  0.95950357  0.72772954  0.10193267     0.36200
C2464       C  0.97350484  0.70319371  0.10590172    -0.06000
C2465       C  0.99474313  0.70264469  0.12482551    -0.32900
C2466       C  0.00279543  0.72610318  0.13864706     0.36100
H2467       H  0.95733019  0.77004463  0.11124147     0.16500
O2468       O  0.93903838  0.72953677  0.08335900    -0.60400
H2469       H  0.00563393  0.68404190  0.12861168     0.16500
O2470       O  0.02409350  0.72465399  0.15631405    -0.60500
H2471       H  0.04052814  0.72615228  0.14494730     0.43500
H2472       H  0.92215328  0.73044681  0.09414559     0.43500
C2473       C  0.05445959  0.85689947  0.22889825    -0.05600
C2474       C  0.06465838  0.84060971  0.24981205    -0.33000
C2475       C  0.07368305  0.85228558  0.27401846     0.36200
C2476       C  0.07218819  0.88045912  0.27758810    -0.06000
C2477       C  0.06265311  0.89679796  0.25658930    -0.32900
C2478       C  0.05409769  0.88530902  0.23227090     0.36100
H2479       H  0.06540564  0.81881820  0.24748968     0.16500
O2480       O  0.08354390  0.83606873  0.29424163    -0.60400
H2481       H  0.06112556  0.91851253  0.25936765     0.16500
O2482       O  0.04451388  0.90202393  0.21231473    -0.60500
H2483       H  0.02495497  0.90420297  0.21620033     0.43500
H2484       H  0.06743088  0.82771209  0.30274935     0.43500
C2485       C  0.08330782  0.82742298  0.10364048    -0.05600
C2486       C  0.10282908  0.80681804  0.10385699    -0.33000
C2487       C  0.12285801  0.80564895  0.08396711     0.36200
C2488       C  0.12365302  0.82536555  0.06337203    -0.06000
C2489       C  0.10447511  0.84632657  0.06353584    -0.32900
C2490       C  0.08441924  0.84746160  0.08339465     0.36100
H2491       H  0.10227846  0.79116656  0.11919499     0.16500
O2492       O  0.14096025  0.78463760  0.08442838    -0.60400
H2493       H  0.10485118  0.86187330  0.04808890     0.16500
O2494       O  0.06636642  0.86853601  0.08308226    -0.60500
H2495       H  0.05252615  0.86343561  0.06947755     0.43500
H2496       H  0.15552248  0.79053660  0.09688284     0.43500
C2497       C  0.96620166  0.07218730  0.72823828    -0.05600
C2498       C  0.96606374  0.10058974  0.72903391    -0.33000
C2499       C  0.97630502  0.11444603  0.75162267     0.36200
C2500       C  0.98620405  0.09970637  0.77393501    -0.06000
C2501       C  0.98480792  0.07127340  0.77344198    -0.32900
C2502       C  0.97511644  0.05758561  0.75082149     0.36100
H2503       H  0.95912698  0.11199115  0.71168149     0.16500
O2504       O  0.97645588  0.14221539  0.75171288    -0.60400
H2505       H  0.99219866  0.05944534  0.79032737     0.16500
O2506       O  0.97569768  0.02982132  0.75045011    -0.60500
H2507       H  0.95693793  0.02408682  0.75464128     0.43500
H2508       H  0.99210777  0.14749057  0.74033975     0.43500
C2509       C  0.06801712  0.25594163  0.89069763    -0.05600
C2510       C  0.08133664  0.23196329  0.89778861    -0.33000
C2511       C  0.07432512  0.20737839  0.88574072     0.36200
C2512       C  0.05397332  0.20651640  0.86578163    -0.06000
C2513       C  0.04171077  0.23078816  0.85757755    -0.32900
C2514       C  0.04837892  0.25536429  0.87009216     0.36100
H2515       H  0.09664908  0.23211095  0.91342659     0.16500
O2516       O  0.08755387  0.18429172  0.89365310    -0.60400
H2517       H  0.02618922  0.23060972  0.84215293     0.16500
O2518       O  0.03616601  0.27877487  0.86153799    -0.60500
H2519       H  0.01729785  0.27773601  0.86823562     0.43500
H2520       H  0.07880571  0.17878905  0.91083677     0.43500
C2521       C  0.08764792  0.08168622  0.84313787    -0.05600
C2522       C  0.08822753  0.06210426  0.86367630    -0.33000
C2523       C  0.10747002  0.04148303  0.86361938     0.36200
C2524       C  0.12692526  0.04020334  0.84282985    -0.06000
C2525       C  0.12703683  0.06036657  0.82279737    -0.32900
C2526       C  0.10769901  0.08109174  0.82291213     0.36100
H2527       H  0.07323204  0.06227655  0.87962837     0.16500
O2528       O  0.10695160  0.02269681  0.88404133    -0.60400
H2529       H  0.14194878  0.05991870  0.80678025     0.16500
O2530       O  0.10827459  0.10020864  0.80282834    -0.60500
H2531       H  0.12020017  0.11478123  0.80973824     0.43500
H2532       H  0.09286470  0.00938658  0.87870634     0.43500
C2533       C  0.78506285  0.94408910  0.13412066    -0.05600
C2534       C  0.78524713  0.92137635  0.11697162    -0.33000
C2535       C  0.76178910  0.91298443  0.10334321     0.36200
C2536       C  0.73748534  0.92763786  0.10629159    -0.06000
C2537       C  0.73709037  0.94949438  0.12452766    -0.32900
C2538       C  0.76032363  0.95740037  0.13870229     0.36100
H2539       H  0.80392729  0.91052488  0.11336140     0.16500
O2540       O  0.76335202  0.89124951  0.08623797    -0.60400
H2541       H  0.71880117  0.96104885  0.12753455     0.16500
O2542       O  0.75884965  0.97916099  0.15579432    -0.60500
H2543       H  0.75273521  0.97155787  0.17330888     0.43500
H2544       H  0.76818237  0.89899343  0.06838869     0.43500
C2545       C  0.88956497  0.01206467  0.22809949    -0.05600
C2546       C  0.87969015  0.00369335  0.25331407    -0.33000
C2547       C  0.89308230  0.01079325  0.27718264     0.36200
C2548       C  0.91651803  0.02697924  0.27626157    -0.06000
C2549       C  0.92575461  0.03656288  0.25128063    -0.32900
C2550       C  0.91267377  0.02902740  0.22727206     0.36100
H2551       H  0.86197871  0.99083553  0.25456667     0.16500
O2552       O  0.88291184  0.00206130  0.30144869    -0.60400
H2553       H  0.94384654  0.04891629  0.25028295     0.16500
O2554       O  0.92300567  0.03796775  0.20315256    -0.60500
H2555       H  0.93727807  0.02471962  0.19833556     0.43500
H2556       H  0.88725846  0.98247536  0.30237551     0.43500
C2557       C  0.91423746  0.91550927  0.15668879    -0.05600
C2558       C  0.91821796  0.89961769  0.17988343    -0.33000
C2559       C  0.93887727  0.88026785  0.18090346     0.36200
C2560       C  0.95605030  0.87665418  0.15849191    -0.06000
C2561       C  0.95174169  0.89223434  0.13517197    -0.32900
C2562       C  0.93114463  0.91151081  0.13412526     0.36100
H2563       H  0.90561068  0.90251029  0.19753448     0.16500
O2564       O  0.94283372  0.86594836  0.20430702    -0.60400
H2565       H  0.96457677  0.88968324  0.11762864     0.16500
O2566       O  0.92779082  0.92626590  0.11088544    -0.60500
H2567       H  0.94077755  0.94153161  0.11234362     0.43500
H2568       H  0.92867237  0.85171361  0.20430636     0.43500
C2569       C  0.79230630  0.10646420  0.96947605    -0.05600
C2570       C  0.76777126  0.11461551  0.98112689    -0.33000
C2571       C  0.74339136  0.10195798  0.97407570     0.36200
C2572       C  0.74318050  0.08083488  0.95493616    -0.06000
C2573       C  0.76754514  0.07328862  0.94262323    -0.32900
C2574       C  0.79197828  0.08563356  0.94994480     0.36100
H2575       H  0.76749815  0.13043830  0.99625046     0.16500
O2576       O  0.71989699  0.11038043  0.98609767    -0.60400
H2577       H  0.76780223  0.05706930  0.92792163     0.16500
O2578       O  0.81542227  0.07707550  0.93787686    -0.60500
H2579       H  0.82064772  0.06036352  0.94773018     0.43500
H2580       H  0.71552864  0.12790645  0.97740018     0.43500
C2581       C  0.89237936  0.20903079  0.02963272    -0.05600
C2582       C  0.88720493  0.23296103  0.01519454    -0.33000
C2583       C  0.90117383  0.25702028  0.02114440     0.36200
C2584       C  0.92076444  0.25744864  0.04191114    -0.06000
C2585       C  0.92493142  0.23383649  0.05713422    -0.32900
C2586       C  0.91086306  0.20993466  0.05133149     0.36100
H2587       H  0.87277968  0.23291712  0.99874254     0.16500
O2588       O  0.89475049  0.28019906  0.00724345    -0.60400
H2589       H  0.93970683  0.23362890  0.07326120     0.16500
O2590       O  0.91597016  0.18735852  0.06663555    -0.60500
H2591       H  0.90352250  0.18872802  0.08227976     0.43500
H2592       H  0.90103901  0.27715034  0.98846983     0.43500
C2593       C  0.91891696  0.12971528  0.93700166    -0.05600
C2594       C  0.91958629  0.15060774  0.91776761    -0.33000
C2595       C  0.93929215  0.15108297  0.89754544     0.36200
C2596       C  0.95888903  0.13042296  0.89629610    -0.06000
C2597       C  0.95761338  0.10898056  0.91490627    -0.32900
C2598       C  0.93789774  0.10850740  0.93515023     0.36100
H2599       H  0.90516932  0.16708253  0.91874830     0.16500
O2600       O  0.93984820  0.17248892  0.87989627    -0.60400
H2601       H  0.97221687  0.09265942  0.91406605     0.16500
O2602       O  0.93737660  0.08717292  0.95289882    -0.60500
H2603       H  0.95068299  0.09189721  0.96714337     0.43500
H2604       H  0.92767429  0.16717645  0.86489699     0.43500
C2605       C  0.86280878  0.03893875  0.10190829    -0.05600
C2606       C  0.83962775  0.05437376  0.09659572    -0.33000
C2607       C  0.83997708  0.07475365  0.07702641     0.36200
C2608       C  0.86392780  0.08020149  0.06254440    -0.06000
C2609       C  0.88720817  0.06492481  0.06805787    -0.32900
C2610       C  0.88676355  0.04433215  0.08742509     0.36100
H2611       H  0.82092943  0.05028560  0.10726227     0.16500
O2612       O  0.81645879  0.08834790  0.07144818    -0.60400
H2613       H  0.90582548  0.06877111  0.05716471     0.16500
O2614       O  0.91000111  0.03000903  0.09235055    -0.60500
H2615       H  0.91003254  0.01518495  0.07883095     0.43500
H2616       H  0.81547527  0.10301353  0.08507369     0.43500
loop_ 
_geom_bond_atom_site_label_1 
_geom_bond_atom_site_label_2 
_geom_bond_distance 
_geom_bond_site_symmetry_2 
_ccdc_geom_bond_type 
In1           O3   2.239       .  S
In1           O4   2.273       .  S
In1          O12   2.234   1_554  S
In1           O6   2.237   1_554  S
In1           O8   2.230       .  S
In1           O9   2.264   1_554  S
In1          O10   2.229       .  S
In1          O13   2.227   1_554  S
C2            O8   1.263       .  A
C2           O10   1.262       .  A
C2         C2608   1.475       .  S
O3           C11   1.258       .  A
O4           C11   1.264       .  A
C5           O12   1.262       .  A
C5            O6   1.261       .  A
C5         C2593   1.478       .  S
C7            O9   1.266       .  A
C7           O13   1.258       .  A
C7         C2569   1.484       .  S
C11        C2581   1.487       .  S
In14         O16   2.245       .  S
In14         O17   2.278       .  S
In14         O25   2.238       .  S
In14         O19   2.220       .  S
In14         O21   2.227       .  S
In14         O22   2.267       .  S
In14         O23   2.235   1_565  S
In14         O26   2.240   1_565  S
C15          O21   1.260   1_545  A
C15          O23   1.263       .  A
C15        C2605   1.473       .  S
O16          C24   1.258       .  A
O17          C24   1.265       .  A
C18          O25   1.264       .  A
C18          O19   1.261       .  A
C18        C2557   1.477       .  S
C20          O22   1.266   1_545  A
C20          O26   1.257       .  A
C20        C2545   1.488       .  S
C24        C2533   1.491       .  S
In27         O29   2.212       .  S
In27         O30   2.276       .  S
In27         O38   2.241   1_455  S
In27         O32   2.235       .  S
In27         O34   2.212       .  S
In27         O35   2.268       .  S
In27         O36   2.251       .  S
In27         O39   2.219       .  S
C28          O34   1.262       .  A
C28          O36   1.265       .  A
C28        C2521   1.478       .  S
O29          C37   1.258   1_455  A
O30          C37   1.266   1_455  A
C31          O38   1.261       .  A
C31          O32   1.260   1_655  A
C31        C2596   1.477       .  S
C33          O35   1.265       .  A
C33          O39   1.257       .  A
C33        C2512   1.480       .  S
C37        C2500   1.482       .  S
In40         O42   2.225       .  S
In40         O43   2.269       .  S
In40         O51   2.246   1_455  S
In40         O45   2.216   1_455  S
In40         O47   2.233       .  S
In40         O48   2.279       .  S
In40         O49   2.239       .  S
In40         O52   2.238   1_455  S
C41          O47   1.259       .  A
C41          O49   1.261       .  A
C41        C2485   1.475       .  S
O42          C50   1.258       .  A
O43          C50   1.266       .  A
C44          O51   1.266       .  A
C44          O45   1.263       .  A
C44        C2560   1.477       .  S
C46          O48   1.265   1_655  A
C46          O52   1.257       .  A
C46        C2461   1.489       .  S
C50        C2473   1.481       .  S
In53         O55   2.237       .  S
In53         O56   2.263       .  S
In53         O64   2.239       .  S
In53         O58   2.231       .  S
In53         O60   2.221   1_554  S
In53         O61   2.267   1_554  S
In53         O62   2.236   1_554  S
In53         O65   2.227   1_554  S
C54          O60   1.262       .  A
C54          O62   1.262       .  A
C54        C2449   1.475       .  S
O55          C63   1.258       .  A
O56          C63   1.264       .  A
C57          O64   1.263       .  A
C57          O58   1.262       .  A
C57        C2488   1.478       .  S
C59          O61   1.265       .  A
C59          O65   1.258       .  A
C59        C2425   1.484       .  S
C63        C2437   1.483       .  S
In66         O68   2.230   1_565  S
In66         O69   2.276       .  S
In66         O77   2.249       .  S
In66         O71   2.220       .  S
In66         O73   2.210       .  S
In66         O74   2.284       .  S
In66         O75   2.245   1_565  S
In66         O78   2.215       .  S
C67          O73   1.262   1_545  A
C67          O75   1.267       .  A
C67        C2524   1.478       .  S
O68          C76   1.256       .  A
O69          C76   1.266   1_565  A
C70          O77   1.261       .  A
C70          O71   1.258       .  A
C70        C2452   1.475       .  S
C72          O74   1.266       .  A
C72          O78   1.256       .  A
C72        C2401   1.479       .  S
C76        C2413   1.487       .  S
C79          C80   1.546       .  S
C79          C85   1.541       .  S
C79          C83   1.540       .  S
C79        C2392   1.541       .  S
C80          H87   1.075       .  S
C80          C81   1.366       .  D
C81          C82   1.536       .  S
C81        C2377   1.491       .  S
C82          C86   1.540       .  S
C82          C84   1.538       .  S
C82          H88   1.108       .  S
C83          H89   1.086       .  S
C83          C84   1.368       .  D
C84        C2353   1.477       .  S
C85          H90   1.086       .  S
C85          C86   1.364       .  D
C86        C2365   1.493       .  S
C91          C92   1.544       .  S
C91          C97   1.539       .  S
C91          C95   1.555       .  S
C91        C2389   1.534       .  S
C92          H99   1.086       .  S
C92          C93   1.368       .  D
C93          C94   1.532       .  S
C93        C2317   1.480       .  S
C94          C98   1.527       .  S
C94          C96   1.535       .  S
C94         H100   1.110       .  S
C95         H101   1.082       .  S
C95          C96   1.371       .  D
C96        C2341   1.488       .  S
C97         H102   1.087       .  S
C97          C98   1.355       .  D
C98        C2329   1.470       .  S
C103        C104   1.545       .  S
C103        C109   1.539       .  S
C103        C107   1.553       .  S
C103       C2308   1.540       .  S
C104        H111   1.085       .  S
C104        C105   1.367       .  D
C105        C106   1.539       .  S
C105       C2344   1.487       .  S
C106        C110   1.527       .  S
C106        C108   1.539       .  S
C106        H112   1.111       .  S
C107        H113   1.080       .  S
C107        C108   1.376       .  D
C108       C2281   1.492       .  S
C109        H114   1.088       .  S
C109        C110   1.352       .  D
C110       C2293   1.470       .  S
C115        C116   1.550       .  S
C115        C121   1.533       .  S
C115        C119   1.542       .  S
C115       C2305   1.535       .  S
C116        H123   1.082       .  S
C116        C117   1.377       .  D
C117        C118   1.539       .  S
C117       C2245   1.492       .  S
C118        C122   1.527       .  S
C118        C120   1.539       .  S
C118        H124   1.109       .  S
C119        H125   1.085       .  S
C119        C120   1.368       .  D
C120       C2269   1.492       .  S
C121        H126   1.087       .  S
C121        C122   1.353       .  D
C122       C2257   1.464       .  S
C127        C128   1.548       .  S
C127        C133   1.541       .  S
C127        C131   1.539       .  S
C127       C2233   1.535       .  S
C128        H135   1.079       .  S
C128        C129   1.369       .  D
C129        C130   1.537       .  S
C129       C2272   1.487       .  S
C130        C134   1.528       .  S
C130        C132   1.537       .  S
C130        H136   1.111       .  S
C131        H137   1.086       .  S
C131        C132   1.370       .  D
C132       C2209   1.484       .  S
C133        H138   1.087       .  S
C133        C134   1.354       .  D
C134       C2221   1.466       .  S
C139        C140   1.539       .  S
C139        C145   1.538       .  S
C139        C143   1.548       .  S
C139       C2236   1.533       .  S
C140        H147   1.086       .  S
C140        C141   1.364       .  D
C141        C142   1.536       .  S
C141       C2185   1.474       .  S
C142        C146   1.532       .  S
C142        C144   1.540       .  S
C142        H148   1.109       .  S
C143        H149   1.082       .  S
C143        C144   1.372       .  D
C144       C2380   1.491       .  S
C145        H150   1.086       .  S
C145        C146   1.360       .  D
C146       C2197   1.479       .  S
C151        C152   1.536       .  S
C151        C157   1.556       .  S
C151        C155   1.543       .  S
C151       C2173   1.534       .  S
C152        H159   1.087       .  S
C152        C153   1.354       .  D
C153        C154   1.524       .  S
C153       C2260   1.465       .  S
C154        C158   1.538       .  S
C154        C156   1.531       .  S
C154        H160   1.111       .  S
C155        H161   1.086       .  S
C155        C156   1.367       .  D
C156       C2149   1.479       .  S
C157        H162   1.082       .  S
C157        C158   1.375       .  D
C158       C2161   1.493       .  S
C163        C164   1.552       .  S
C163        C169   1.543       .  S
C163        C167   1.544       .  S
C163       C2176   1.540       .  S
C164        H171   1.076       .  S
C164        C165   1.368       .  D
C165        C166   1.532       .  S
C165       C2137   1.485       .  S
C166        C170   1.528       .  S
C166        C168   1.529       .  S
C166        H172   1.111       .  S
C167        H173   1.086       .  S
C167        C168   1.368       .  D
C168       C2125   1.475       .  S
C169        H174   1.086       .  S
C169        C170   1.362       .  D
C170       C2224   1.481       .  S
C175        C176   1.542       .  S
C175        C181   1.538       .  S
C175        C179   1.551       .  S
C175       C2113   1.542       .  S
C176        H183   1.085       .  S
C176        C177   1.372       .  D
C177        C178   1.541       .  S
C177       C2089   1.484       .  S
C178        C182   1.527       .  S
C178        C180   1.538       .  S
C178        H184   1.111       .  S
C179        H185   1.079       .  S
C179        C180   1.372       .  D
C180       C2101   1.499       .  S
C181        H186   1.087       .  S
C181        C182   1.356       .  D
C182       C2332   1.468       .  S
C187        C188   1.554       .  S
C187        C193   1.543       .  S
C187        C191   1.546       .  S
C187       C2116   1.547       .  S
C188        H195   1.076       .  S
C188        C189   1.369       .  D
C189        C190   1.538       .  S
C189       C2164   1.497       .  S
C190        C194   1.531       .  S
C190        C192   1.533       .  S
C190        H196   1.109       .  S
C191        H197   1.086       .  S
C191        C192   1.369       .  D
C192       C2077   1.482       .  S
C193        H198   1.087       .  S
C193        C194   1.362       .  D
C194       C2296   1.479       .  S
C199        C200   1.550       .  S
C199        C205   1.540       .  S
C199        C203   1.540       .  S
C199       C2065   1.540       .  S
C200        H207   1.077       .  S
C200        C201   1.373       .  D
C201        C202   1.541       .  S
C201       C2104   1.496       .  S
C202        C206   1.529       .  S
C202        C204   1.540       .  S
C202        H208   1.109       .  S
C203        H209   1.086       .  S
C203        C204   1.369       .  D
C204       C2053   1.486       .  S
C205        H210   1.087       .  S
C205        C206   1.355       .  D
C206       C2368   1.470       .  S
C211        C212   1.543       .  S
C211        C217   1.538       .  S
C211        C215   1.547       .  S
C211       C2068   1.536       .  S
C212        H219   1.085       .  S
C212        C213   1.373       .  D
C213        C214   1.540       .  S
C213       C2041   1.492       .  S
C214        C218   1.531       .  S
C214        C216   1.542       .  S
C214        H220   1.109       .  S
C215        H221   1.081       .  S
C215        C216   1.370       .  D
C216       C2140   1.491       .  S
C217        H222   1.087       .  S
C217        C218   1.353       .  D
C218       C2200   1.469       .  S
In223       O225   2.220       .  S
In223       O226   2.297       .  S
In223       O234   2.246       .  S
In223       O228   2.225       .  S
In223       O230   2.212       .  S
In223       O231   2.284       .  S
In223       O232   2.251       .  S
In223       O235   2.232       .  S
C224        O230   1.259       .  A
C224        O232   1.266       .  A
C224       C2029   1.478       .  S
O225        C233   1.257       .  A
O226        C233   1.267       .  A
C227        O234   1.262       .  A
C227        O228   1.257       .  A
C227       C2017   1.475       .  S
C229        O231   1.266       .  A
C229        O235   1.257       .  A
C229       C2008   1.489       .  S
C233       C2080   1.491       .  S
In236       O238   2.213       .  S
In236       O239   2.280       .  S
In236       O247   2.244       .  S
In236       O241   2.220       .  S
In236       O243   2.224       .  S
In236       O244   2.262       .  S
In236       O245   2.251       .  S
In236       O248   2.223       .  S
C237        O243   1.261       .  A
C237        O245   1.261       .  A
C237       C1993   1.478       .  S
O238        C246   1.258       .  A
O239        C246   1.267       .  A
C240        O247   1.265       .  A
C240        O241   1.263       .  A
C240       C2032   1.479       .  S
C242        O244   1.266       .  A
C242        O248   1.258       .  A
C242       C1981   1.482       .  S
C246       C2152   1.478       .  S
In249       O251   2.227       .  S
In249       O252   2.273       .  S
In249       O260   2.241   1_554  S
In249       O254   2.214   1_554  S
In249       O256   2.230       .  S
In249       O257   2.280   1_554  S
In249       O258   2.236       .  S
In249       O261   2.230   1_554  S
C250        O256   1.259       .  A
C250        O258   1.261       .  A
C250       C2020   1.475       .  S
O251        C259   1.258       .  A
O252        C259   1.266       .  A
C253        O260   1.266       .  A
C253        O254   1.262       .  A
C253       C1972   1.476       .  S
C255        O257   1.265       .  A
C255        O261   1.257       .  A
C255       C1945   1.488       .  S
C259       C1957   1.483       .  S
In262       O264   2.208       .  S
In262       O265   2.276       .  S
In262       O273   2.261       .  S
In262       O267   2.202       .  S
In262       O269   2.219   1_554  S
In262       O270   2.283   1_554  S
In262       O271   2.253   1_554  S
In262       O274   2.197   1_554  S
C263        O269   1.259       .  A
C263        O271   1.264       .  A
C263       C1933   1.478       .  S
O264        C272   1.257       .  A
O265        C272   1.267       .  A
C266        O273   1.265       .  A
C266        O267   1.258       .  A
C266       C1996   1.478       .  S
C268        O270   1.267       .  A
C268        O274   1.256       .  A
C268       C1909   1.482       .  S
C272       C1921   1.481       .  S
In275       O277   2.226       .  S
In275       O278   2.276       .  S
In275       O286   2.245       .  S
In275       O280   2.226       .  S
In275       O282   2.208       .  S
In275       O283   2.278       .  S
In275       O284   2.249       .  S
In275       O287   2.220       .  S
C276        O282   1.261       .  A
C276        O284   1.265       .  A
C276       C1897   1.476       .  S
O277        C285   1.257       .  A
O278        C285   1.267       .  A
C279        O286   1.263       .  A
C279        O280   1.260       .  A
C279       C1936   1.478       .  S
C281        O283   1.267       .  A
C281        O287   1.257       .  A
C281       C2188   1.485       .  S
C285       C1885   1.486       .  S
In288       O290   2.225       .  S
In288       O291   2.275       .  S
In288       O299   2.244       .  S
In288       O293   2.229       .  S
In288       O295   2.213       .  S
In288       O296   2.277       .  S
In288       O297   2.235       .  S
In288       O300   2.224       .  S
C289        O295   1.264       .  A
C289        O297   1.265       .  A
C289       C1900   1.475       .  S
O290        C298   1.257       .  A
O291        C298   1.267       .  A
C292        O299   1.261       .  A
C292        O293   1.260       .  A
C292       C1969   1.475       .  S
C294        O296   1.267       .  A
C294        O300   1.258       .  A
C294       C1873   1.489       .  S
C298       C2356   1.486       .  S
C301        C302   1.538       .  S
C301        C307   1.542       .  S
C301        C305   1.551       .  S
C301       C1861   1.538       .  S
C302        H309   1.086       .  S
C302        C303   1.365       .  D
C303        C304   1.534       .  S
C303       C1825   1.469       .  S
C304        C308   1.531       .  S
C304        C306   1.532       .  S
C304        H310   1.110       .  S
C305        H311   1.077       .  S
C305        C306   1.368       .  D
C306       C1849   1.483       .  S
C307        H312   1.086       .  S
C307        C308   1.362       .  D
C308       C1840   1.484       .  S
C313        C314   1.549       .  S
C313        C319   1.534       .  S
C313        C317   1.538       .  S
C313       C1864   1.535       .  S
C314        H321   1.082       .  S
C314        C315   1.371       .  D
C315        C316   1.538       .  S
C315       C1813   1.492       .  S
C316        C320   1.538       .  S
C316        C318   1.538       .  S
C316        H322   1.106       .  S
C317        H323   1.086       .  S
C317        C318   1.365       .  D
C318       C1924   1.474       .  S
C319        H324   1.086       .  S
C319        C320   1.363       .  D
C320       C1804   1.490       .  S
C325        C326   1.541       .  S
C325        C331   1.543       .  S
C325        C329   1.546       .  S
C325       C1789   1.538       .  S
C326        H333   1.086       .  S
C326        C327   1.373       .  D
C327        C328   1.542       .  S
C327       C1888   1.490       .  S
C328        C332   1.525       .  S
C328        C330   1.537       .  S
C328        H334   1.110       .  S
C329        H335   1.076       .  S
C329        C330   1.366       .  D
C330       C1816   1.488       .  S
C331        H336   1.087       .  S
C331        C332   1.356       .  D
C332       C1780   1.467       .  S
C337        C338   1.540       .  S
C337        C343   1.539       .  S
C337        C341   1.545       .  S
C337       C1765   1.535       .  S
C338        H345   1.084   1_655  S
C338        C339   1.365       .  D
C339        C340   1.543       .  S
C339       C1852   1.487       .  S
C340        C344   1.542       .  S
C340        C342   1.536       .  S
C340        H346   1.105       .  S
C341        H347   1.085       .  S
C341        C342   1.367       .  D
C342       C1741   1.483       .  S
C343        H348   1.082       .  S
C343        C344   1.367       .  D
C344       C1756   1.506       .  S
C349        C350   1.542       .  S
C349        C355   1.535       .  S
C349        C353   1.541       .  S
C349       C1768   1.536       .  S
C350        H357   1.083       .  S
C350        C351   1.372       .  D
C351        C352   1.543       .  S
C351       C2584   1.494       .  S
C352        C356   1.538       .  S
C352        C354   1.539       .  S
C352        H358   1.104       .  S
C353        H359   1.084   1_655  S
C353        C354   1.364       .  D
C354       C1732   1.489       .  S
C355        H360   1.086       .  S
C355        C356   1.364       .  D
C356       C1717   1.489       .  S
C361        C362   1.550       .  S
C361        C367   1.539       .  S
C361        C365   1.535       .  S
C361       C1792   1.532       .  S
C362        H369   1.082       .  S
C362        C363   1.372       .  D
C363        C364   1.536       .  S
C363       C1729   1.491       .  S
C364        C368   1.527       .  S
C364        C366   1.539       .  S
C364        H370   1.109       .  S
C365        H371   1.086       .  S
C365        C366   1.368       .  D
C366       C2509   1.481       .  S
C367        H372   1.087       .  S
C367        C368   1.357       .  D
C368       C1708   1.465       .  S
C373        C374   1.537       .  S
C373        C379   1.546       .  S
C373        C377   1.542       .  S
C373       C1681   1.546       .  S
C374        H381   1.085       .  S
C374        C375   1.366       .  D
C375        C376   1.540       .  S
C375       C1720   1.499       .  S
C376        C380   1.540       .  S
C376        C378   1.537       .  S
C376        H382   1.102       .  S
C377        H383   1.085       .  S
C377        C378   1.370       .  D
C378       C1948   1.490       .  S
C379        H384   1.076       .  S
C379        C380   1.370       .  D
C380       C1693   1.494       .  S
C385        C386   1.552       .  S
C385        C391   1.540       .  S
C385        C389   1.540       .  S
C385       C1684   1.542       .  S
C386        H393   1.080       .  S
C386        C387   1.367       .  D
C387        C388   1.534       .  S
C387       C1669   1.490   1_655  S
C388        C392   1.538       .  S
C388        C390   1.540       .  S
C388        H394   1.108   1_655  S
C389        H395   1.085       .  S
C389        C390   1.370       .  D
C390       C1657   1.486       .  S
C391        H396   1.083       .  S
C391        C392   1.364       .  D
C392       C1705   1.495   1_655  S
C397        C398   1.542       .  S
C397        C403   1.539       .  S
C397        C401   1.546       .  S
C397       C1645   1.543       .  S
C398        H405   1.080       .  S
C398        C399   1.368       .  D
C399        C400   1.539       .  S
C399       C1696   1.492       .  S
C400        C404   1.531       .  S
C400        C402   1.541       .  S
C400        H406   1.110       .  S
C401        H407   1.086       .  S
C401        C402   1.372       .  D
C402       C2005   1.488       .  S
C403        H408   1.086       .  S
C403        C404   1.362       .  D
C404       C1753   1.484       .  S
C409        C410   1.545       .  S
C409        C415   1.535       .  S
C409        C413   1.553       .  S
C409       C1648   1.540       .  S
C410        H417   1.084       .  S
C410        C411   1.374       .  D
C411        C412   1.541       .  S
C411       C2464   1.497       .  S
C412        C416   1.529       .  S
C412        C414   1.542       .  S
C412        H418   1.108   1_655  S
C413        H419   1.081       .  S
C413        C414   1.372       .  D
C414       C1636   1.501   1_655  S
C415        H420   1.087       .  S
C415        C416   1.353       .  D
C416       C1837   1.465   1_655  S
C421        C422   1.540       .  S
C421        C427   1.538       .  S
C421        C425   1.553       .  S
C421       C1624   1.539       .  S
C422        H429   1.086       .  S
C422        C423   1.368       .  D
C423        C424   1.535       .  S
C423       C1609   1.477       .  S
C424        C428   1.539       .  S
C424        C426   1.533       .  S
C424        H430   1.106       .  S
C425        H431   1.080       .  S
C425        C426   1.366       .  D
C426       C1672   1.492       .  S
C427        H432   1.086       .  S
C427        C428   1.365       .  D
C428       C1777   1.492       .  S
C433        C434   1.553       .  S
C433        C439   1.536       .  S
C433        C437   1.544       .  S
C433       C1621   1.543       .  S
C434        H441   1.074       .  S
C434        C435   1.371       .  D
C435        C436   1.541       .  S
C435       C1633   1.500       .  S
C436        C440   1.529       .  S
C436        C438   1.538       .  S
C436        H442   1.108       .  S
C437        H443   1.086       .  S
C437        C438   1.372       .  D
C438       C2428   1.488       .  S
C439        H444   1.088       .  S
C439        C440   1.352       .  D
C440       C1801   1.467       .  S
C445        C446   1.550       .  S
C445        C451   1.535       .  S
C445        C449   1.541       .  S
C445       C1600   1.536       .  S
C446        H453   1.085       .  S
C446        C447   1.367       .  D
C447        C448   1.538       .  S
C447       C1585   1.490   1_545  S
C448        C452   1.532       .  S
C448        C450   1.540       .  S
C448        H454   1.110   1_545  S
C449        H455   1.083       .  S
C449        C450   1.368       .  D
C450       C1564   1.474       .  S
C451        H456   1.086       .  S
C451        C452   1.360       .  D
C452       C1573   1.482   1_545  S
C457        C458   1.533       .  S
C457        C463   1.541       .  S
C457        C461   1.545       .  S
C457       C1597   1.535       .  S
C458        H465   1.086       .  S
C458        C459   1.362       .  D
C459        C460   1.538       .  S
C459       C1537   1.490       .  S
C460        C464   1.536       .  S
C460        C462   1.539       .  S
C460        H466   1.107       .  S
C461        H467   1.085       .  S
C461        C462   1.372       .  D
C462       C1960   1.475       .  S
C463        H468   1.085       .  S
C463        C464   1.366       .  D
C464       C1549   1.492       .  S
C469        C470   1.547       .  S
C469        C475   1.539       .  S
C469        C473   1.555       .  S
C469       C1525   1.545       .  S
C470        H477   1.086       .  S
C470        C471   1.371       .  D
C471        C472   1.534       .  S
C471       C1501   1.483       .  S
C472        C476   1.529       .  S
C472        C474   1.534       .  S
C472        H478   1.111       .  S
C473        H479   1.077       .  S
C473        C474   1.371       .  D
C474       C1588   1.487       .  S
C475        H480   1.087       .  S
C475        C476   1.356       .  D
C476       C1516   1.475       .  S
C481        C482   1.534       .  S
C481        C487   1.534       .  S
C481        C485   1.544       .  S
C481       C1492   1.535       .  S
C482        H489   1.086       .  S
C482        C483   1.367       .  D
C483        C484   1.544       .  S
C483       C1552   1.490       .  S
C484        C488   1.539       .  S
C484        C486   1.542       .  S
C484        H490   1.104       .  S
C485        H491   1.084       .  S
C485        C486   1.373       .  D
C486       C1876   1.486       .  S
C487        H492   1.085       .  S
C487        C488   1.363       .  D
C488       C1477   1.497       .  S
C493        C494   1.542       .  S
C493        C499   1.540       .  S
C493        C497   1.547       .  S
C493       C1489   1.542       .  S
C494        H501   1.085       .  S
C494        C495   1.370       .  D
C495        C496   1.541       .  S
C495       C1453   1.505   1_545  S
C496        C500   1.541       .  S
C496        C498   1.539       .  S
C496        H502   1.099   1_545  S
C497        H503   1.081       .  S
C497        C498   1.372       .  D
C498       C2416   1.492       .  S
C499        H504   1.086       .  S
C499        C500   1.362       .  D
C500       C1465   1.492   1_545  S
C505        C506   1.553       .  S
C505        C511   1.538       .  S
C505        C509   1.543       .  S
C505       C1528   1.541       .  S
C506        H513   1.081       .  S
C506        C507   1.374       .  D
C507        C508   1.535       .  S
C507       C1468   1.495       .  S
C508        C512   1.523       .  S
C508        C510   1.539       .  S
C508        H514   1.111       .  S
C509        H515   1.085       .  S
C509        C510   1.372       .  D
C510       C2440   1.490       .  S
C511        H516   1.087       .  S
C511        C512   1.355       .  D
C512       C1441   1.460       .  S
C517        C518   1.544       .  S
C517        C523   1.536       .  S
C517        C521   1.536       .  S
C517       C1417   1.533       .  S
C518        H525   1.084       .  S
C518        C519   1.370       .  D
C519        C520   1.540       .  S
C519       C1405   1.483       .  S
C520        C524   1.535       .  S
C520        C522   1.540       .  S
C520        H526   1.107       .  S
C521        H527   1.085       .  S
C521        C522   1.365       .  D
C522       C1429   1.485       .  S
C523        H528   1.086       .  S
C523        C524   1.365       .  D
C524       C1456   1.491       .  S
C529        C530   1.546       .  S
C529        C535   1.535       .  S
C529        C533   1.541       .  S
C529       C1420   1.531       .  S
C530        H537   1.084       .  S
C530        C531   1.365       .  D
C531        C532   1.533       .  S
C531       C1393   1.484       .  S
C532        C536   1.536       .  S
C532        C534   1.535       .  S
C532        H538   1.108       .  S
C533        H539   1.084       .  S
C533        C534   1.369       .  D
C534       C1912   1.472       .  S
C535        H540   1.084       .  S
C535        C536   1.361       .  D
C536       C1444   1.489       .  S
C541        C542   1.543       .  S
C541        C547   1.536       .  S
C541        C545   1.546       .  S
C541       C1381   1.534       .  S
C542        H549   1.084       .  S
C542        C543   1.371       .  D
C543        C544   1.536       .  S
C543       C1984   1.482       .  S
C544        C548   1.531       .  S
C544        C546   1.539       .  S
C544        H550   1.110       .  S
C545        H551   1.084       .  S
C545        C546   1.369       .  D
C546       C1396   1.486       .  S
C547        H552   1.087       .  S
C547        C548   1.355       .  D
C548       C1513   1.471       .  S
C553        C554   1.543       .  S
C553        C559   1.536       .  S
C553        C557   1.551       .  S
C553       C1384   1.538       .  S
C554        H561   1.081       .  S
C554        C555   1.368       .  D
C555        C556   1.544       .  S
C555       C1369   1.501       .  S
C556        C560   1.528       .  S
C556        C558   1.542       .  S
C556        H562   1.107       .  S
C557        H563   1.084       .  S
C557        C558   1.376       .  D
C558       C2536   1.500       .  S
C559        H564   1.087       .  S
C559        C560   1.354       .  D
C560       C1576   1.467       .  S
C565        C566   1.544       .  S
C565        C571   1.539       .  S
C565        C569   1.541       .  S
C565       C1360   1.537       .  S
C566        H573   1.081   1_545  S
C566        C567   1.369       .  D
C567        C568   1.537       .  S
C567       C1432   1.485       .  S
C568        C572   1.538       .  S
C568        C570   1.532       .  S
C568        H574   1.106       .  S
C569        H575   1.086       .  S
C569        C570   1.370       .  D
C570       C1345   1.484       .  S
C571        H576   1.086       .  S
C571        C572   1.363       .  D
C572       C1480   1.491       .  S
C577        C578   1.541       .  S
C577        C583   1.540       .  S
C577        C581   1.552       .  S
C577       C1357   1.540       .  S
C578        H585   1.086       .  S
C578        C579   1.370       .  D
C579        C580   1.537       .  S
C579       C2572   1.487       .  S
C580        C584   1.529       .  S
C580        C582   1.541       .  S
C580        H586   1.109       .  S
C581        H587   1.077   1_545  S
C581        C582   1.373       .  D
C582       C1372   1.498       .  S
C583        H588   1.087       .  S
C583        C584   1.354       .  D
C584       C1540   1.468       .  S
In589       O591   2.219       .  S
In589       O592   2.283       .  S
In589       O600   2.251       .  S
In589       O594   2.213       .  S
In589       O596   2.223       .  S
In589       O597   2.273       .  S
In589       O598   2.235       .  S
In589       O601   2.223       .  S
C590        O596   1.261       .  A
C590        O598   1.263       .  A
C590       C1324   1.476       .  S
O591        C599   1.256       .  A
O592        C599   1.266       .  A
C593        O600   1.264       .  A
C593        O594   1.261       .  A
C593       C1333   1.476       .  S
C595        O597   1.266       .  A
C595        O601   1.257       .  A
C595       C2056   1.484       .  S
C599       C1348   1.487       .  S
In602       O604   2.206       .  S
In602       O605   2.272       .  S
In602       O613   2.245       .  S
In602       O607   2.212       .  S
In602       O609   2.212       .  S
In602       O610   2.278       .  S
In602       O611   2.246       .  S
In602       O614   2.203       .  S
C603        O609   1.261       .  A
C603        O611   1.264       .  A
C603       C1309   1.476       .  S
O604        C612   1.257       .  A
O605        C612   1.268       .  A
C606        O613   1.265       .  A
C606        O607   1.261       .  A
C606       C1336   1.476       .  S
C608        O610   1.268       .  A
C608        O614   1.257       .  A
C608       C1297   1.479       .  S
C612       C2092   1.478       .  S
In615       O617   2.232       .  S
In615       O618   2.267       .  S
In615       O626   2.244       .  S
In615       O620   2.210       .  S
In615       O622   2.224       .  S
In615       O623   2.271       .  S
In615       O624   2.252   1_565  S
In615       O627   2.222       .  S
C616        O622   1.259   1_545  A
C616        O624   1.262       .  A
C616       C1312   1.478       .  S
O617        C625   1.257       .  A
O618        C625   1.266       .  A
C619        O626   1.265       .  A
C619        O620   1.261       .  A
C619       C1285   1.476       .  S
C621        O623   1.266   1_545  A
C621        O627   1.258   1_545  A
C621       C1561   1.486       .  S
C625       C1273   1.482       .  S
In628       O630   2.224   1_565  S
In628       O631   2.277       .  S
In628       O639   2.233       .  S
In628       O633   2.218       .  S
In628       O635   2.226   1_565  S
In628       O636   2.273       .  S
In628       O637   2.245   1_565  S
In628       O640   2.244       .  S
C629        O635   1.258       .  A
C629        O637   1.261       .  A
C629       C1321   1.476       .  S
O630        C638   1.258       .  A
O631        C638   1.266   1_565  A
C632        O639   1.265       .  A
C632        O633   1.261       .  A
C632       C1261   1.473       .  S
C634        O636   1.264       .  A
C634        O640   1.257       .  A
C634       C1408   1.487       .  S
C638       C1249   1.485       .  S
In641       O643   2.232       .  S
In641       O644   2.257       .  S
In641       O652   2.232       .  S
In641       O646   2.225       .  S
In641       O648   2.229       .  S
In641       O649   2.256       .  S
In641       O650   2.228       .  S
In641       O653   2.239       .  S
C642        O648   1.262       .  A
C642        O650   1.262       .  A
C642       C1264   1.472       .  S
O643        C651   1.259       .  A
O644        C651   1.265       .  A
C645        O652   1.262       .  A
C645        O646   1.261       .  A
C645       C1237   1.473       .  S
C647        O649   1.263       .  A
C647        O653   1.259       .  A
C647       C2212   1.483       .  S
C651       C1225   1.484       .  S
In654       O656   2.224       .  S
In654       O657   2.278       .  S
In654       O665   2.247       .  S
In654       O659   2.212       .  S
In654       O661   2.225       .  S
In654       O662   2.268       .  S
In654       O663   2.240       .  S
In654       O666   2.226       .  S
C655        O661   1.259       .  A
C655        O663   1.260       .  A
C655       C1240   1.473       .  S
O656        C664   1.257       .  A
O657        C664   1.266       .  A
C658        O665   1.265       .  A
C658        O659   1.262       .  A
C658       C1288   1.477       .  S
C660        O662   1.266       .  A
C660        O666   1.258       .  A
C660       C2248   1.482       .  S
C664       C1504   1.481       .  S
C667        C668   1.546       .  S
C667        C673   1.532       .  S
C667        C671   1.548       .  S
C667       C1216   1.538       .  S
C668        H675   1.085       .  S
C668        C669   1.371       .  D
C669        C670   1.543       .  S
C669       C1201   1.496       .  S
C670        C674   1.533       .  S
C670        C672   1.544       .  S
C670        H676   1.109       .  S
C671        H677   1.084       .  S
C671        C672   1.374       .  D
C672       C1177   1.492       .  S
C673        H678   1.088       .  S
C673        C674   1.352       .  D
C674       C1189   1.470       .  S
C679        C680   1.550       .  S
C679        C685   1.538       .  S
C679        C683   1.548       .  S
C679       C1213   1.542       .  S
C680        H687   1.082       .  S
C680        C681   1.370       .  D
C681        C682   1.536       .  S
C681       C1252   1.480       .  S
C682        C686   1.528       .  S
C682        C684   1.540       .  S
C682        H688   1.111   1_545  S
C683        H689   1.084       .  S
C683        C684   1.369       .  D
C684       C1168   1.492   1_545  S
C685        H690   1.087       .  S
C685        C686   1.358       .  D
C686       C1156   1.474   1_545  S
C691        C692   1.546       .  S
C691        C697   1.533       .  S
C691        C695   1.547       .  S
C691       C1141   1.536       .  S
C692        H699   1.084       .  S
C692        C693   1.371       .  D
C693        C694   1.543       .  S
C693       C1165   1.498       .  S
C694        C698   1.532       .  S
C694        C696   1.540       .  S
C694        H700   1.107       .  S
C695        H701   1.085       .  S
C695        C696   1.374       .  D
C696       C1228   1.490       .  S
C697        H702   1.087       .  S
C697        C698   1.352       .  D
C698       C1129   1.469       .  S
C703        C704   1.547       .  S
C703        C709   1.532       .  S
C703        C707   1.546       .  S
C703       C1120   1.536       .  S
C704        H711   1.085       .  S
C704        C705   1.374       .  D
C705        C706   1.541       .  S
C705       C1093   1.492       .  S
C706        C710   1.531       .  S
C706        C708   1.540       .  S
C706        H712   1.109       .  S
C707        H713   1.083       .  S
C707        C708   1.370       .  D
C708       C1204   1.494       .  S
C709        H714   1.087       .  S
C709        C710   1.353       .  D
C710       C1105   1.467       .  S
C715        C716   1.543       .  S
C715        C721   1.537       .  S
C715        C719   1.548       .  S
C715       C1117   1.539       .  S
C716        H723   1.085       .  S
C716        C717   1.364       .  D
C717        C718   1.542       .  S
C717       C1081   1.485   1_545  S
C718        C722   1.538       .  S
C718        C720   1.536       .  S
C718        H724   1.108   1_545  S
C719        H725   1.084       .  S
C719        C720   1.371       .  D
C720       C2548   1.483       .  S
C721        H726   1.084       .  S
C721        C722   1.364       .  D
C722       C1069   1.498   1_545  S
C727        C728   1.545       .  S
C727        C733   1.537       .  S
C727        C731   1.549       .  S
C727       C1144   1.538       .  S
C728        H735   1.084       .  S
C728        C729   1.369       .  D
C729        C730   1.535       .  S
C729       C2476   1.472       .  S
C730        C734   1.537       .  S
C730        C732   1.533       .  S
C730        H736   1.108       .  S
C731        H737   1.085       .  S
C731        C732   1.364       .  D
C732       C1084   1.484       .  S
C733        H738   1.087       .  S
C733        C734   1.364       .  D
C734       C1060   1.492       .  S
C739        C740   1.539       .  S
C739        C745   1.546       .  S
C739        C743   1.542       .  S
C739       C1033   1.537       .  S
C740        H747   1.086       .  S
C740        C741   1.372       .  D
C741        C742   1.541       .  S
C741       C1021   1.486       .  S
C742        C746   1.528       .  S
C742        C744   1.536       .  S
C742        H748   1.109   1_655  S
C743        H749   1.074       .  S
C743        C744   1.365       .  D
C744       C1045   1.486   1_655  S
C745        H750   1.087       .  S
C745        C746   1.358       .  D
C746       C1057   1.472   1_655  S
C751        C752   1.544       .  S
C751        C757   1.541       .  S
C751        C755   1.538       .  S
C751       C1036   1.531       .  S
C752        H759   1.082       .  S
C752        C753   1.364       .  D
C753        C754   1.544       .  S
C753       C1009   1.486       .  S
C754        C758   1.540       .  S
C754        C756   1.539       .  S
C754        H760   1.106       .  S
C755        H761   1.086       .  S
C755        C756   1.367       .  D
C756       C1276   1.487       .  S
C757        H762   1.083       .  S
C757        C758   1.365       .  D
C758       C1072   1.500       .  S
C763        C764   1.546       .  S
C763        C769   1.534       .  S
C763        C767   1.546       .  S
C763        C997   1.538       .  S
C764        H771   1.085       .  S
C764        C765   1.368       .  D
C765        C766   1.535       .  S
C765       C1048   1.487       .  S
C766        C770   1.532       .  S
C766        C768   1.536       .  S
C766        H772   1.108       .  S
C767        H773   1.084       .  S
C767        C768   1.371       .  D
C768        C985   1.476       .  S
C769        H774   1.087       .  S
C769        C770   1.359       .  D
C770       C1132   1.480       .  S
C775        C776   1.553       .  S
C775        C781   1.538       .  S
C775        C779   1.549       .  S
C775       C1000   1.535       .  S
C776        H783   1.085       .  S
C776        C777   1.372       .  D
C777        C778   1.530       .  S
C777       C2404   1.477       .  S
C778        C782   1.526       .  S
C778        C780   1.533       .  S
C778        H784   1.112       .  S
C779        H785   1.084       .  S
C779        C780   1.367       .  D
C780        C973   1.483       .  S
C781        H786   1.087       .  S
C781        C782   1.356       .  D
C782       C1153   1.471       .  S
C787        C788   1.545       .  S
C787        C793   1.539       .  S
C787        C791   1.552       .  S
C787        C961   1.536       .  S
C788        H795   1.084       .  S
C788        C789   1.367       .  D
C789        C790   1.532       .  S
C789       C1300   1.471       .  S
C790        C794   1.527       .  S
C790        C792   1.532       .  S
C790        H796   1.111       .  S
C791        H797   1.085   1_545  S
C791        C792   1.366       .  D
C792       C1012   1.481   1_545  S
C793        H798   1.087       .  S
C793        C794   1.360       .  D
C794       C1108   1.475       .  S
C799        C800   1.544       .  S
C799        C805   1.538       .  S
C799        C803   1.549       .  S
C799        C964   1.534       .  S
C800        H807   1.084   1_545  S
C800        C801   1.364       .  D
C801        C802   1.537       .  S
C801        C976   1.485   1_645  S
C802        C806   1.531       .  S
C802        C804   1.534       .  S
C802        H808   1.110   1_655  S
C803        H809   1.085       .  S
C803        C804   1.370       .  D
C804       C2497   1.474       .  S
C805        H810   1.087       .  S
C805        C806   1.359       .  D
C806       C1192   1.481       .  S
In811       O813   2.228       .  S
In811       O814   2.274       .  S
In811       O822   2.250       .  S
In811       O816   2.227       .  S
In811       O818   2.224       .  S
In811       O819   2.275       .  S
In811       O820   2.232       .  S
In811       O823   2.232       .  S
C812        O818   1.264       .  A
C812        O820   1.265       .  A
C812        C940   1.475       .  S
O813        C821   1.258       .  A
O814        C821   1.267       .  A
C815        O822   1.260       .  A
C815        O816   1.260       .  A
C815        C949   1.478       .  S
C817        O819   1.267       .  A
C817        O823   1.258       .  A
C817       C1612   1.484       .  S
C821       C2044   1.486       .  S
In824       O826   2.197       .  S
In824       O827   2.282       .  S
In824       O835   2.246       .  S
In824       O829   2.206       .  S
In824       O831   2.217       .  S
In824       O832   2.276       .  S
In824       O833   2.243       .  S
In824       O836   2.209       .  S
C825        O831   1.262       .  A
C825        O833   1.265       .  A
C825        C952   1.477       .  S
O826        C834   1.257       .  A
O827        C834   1.269       .  A
C828        O835   1.264       .  A
C828        O829   1.261       .  A
C828        C925   1.472       .  S
C830        O832   1.270       .  A
C830        O836   1.258       .  A
C830        C988   1.487       .  S
C834       C2128   1.481       .  S
In837       O839   2.225   1_455  S
In837       O840   2.254       .  S
In837       O848   2.239       .  S
In837       O842   2.214       .  S
In837       O844   2.219       .  S
In837       O845   2.257       .  S
In837       O846   2.234   1_455  S
In837       O849   2.212       .  S
C838        O844   1.262   1_655  A
C838        O846   1.264       .  A
C838        C913   1.476       .  S
O839        C847   1.258   1_655  A
O840        C847   1.265       .  A
C841        O848   1.261       .  A
C841        O842   1.261       .  A
C841        C928   1.471       .  S
C843        O845   1.267       .  A
C843        O849   1.257       .  A
C843       C1828   1.478       .  S
C847       C1024   1.478   1_455  S
In850       O852   2.246   1_455  S
In850       O853   2.264       .  S
In850       O861   2.236   1_455  S
In850       O855   2.231   1_455  S
In850       O857   2.234       .  S
In850       O858   2.259       .  S
In850       O859   2.236       .  S
In850       O862   2.237       .  S
C851        O857   1.261       .  A
C851        O859   1.262       .  A
C851        C937   1.475       .  S
O852        C860   1.260       .  A
O853        C860   1.265   1_455  A
C854        O861   1.262       .  A
C854        O855   1.261       .  A
C854        C904   1.476       .  S
C856        O858   1.265       .  A
C856        O862   1.258       .  A
C856       C1180   1.485       .  S
C860       C1660   1.489       .  S
In863       O865   2.227       .  S
In863       O866   2.269       .  S
In863       O874   2.241       .  S
In863       O868   2.214       .  S
In863       O870   2.236       .  S
In863       O871   2.267       .  S
In863       O872   2.232       .  S
In863       O875   2.232       .  S
C864        O870   1.259       .  A
C864        O872   1.259       .  A
C864        C901   1.475       .  S
O865        C873   1.258       .  A
O866        C873   1.265       .  A
C867        O874   1.266       .  A
C867        O868   1.263       .  A
C867        C889   1.475       .  S
C869        O871   1.264       .  A
C869        O875   1.257       .  A
C869       C1096   1.484       .  S
C873       C2320   1.475       .  S
In876       O878   2.242       .  S
In876       O879   2.266       .  S
In876       O887   2.245       .  S
In876       O881   2.219       .  S
In876       O883   2.219       .  S
In876       O884   2.274       .  S
In876       O885   2.240       .  S
In876       O888   2.228       .  S
C877        O883   1.260       .  A
C877        O885   1.263       .  A
C877        C892   1.473       .  S
O878        C886   1.258       .  A
O879        C886   1.266       .  A
C880        O887   1.264       .  A
C880        O881   1.261       .  A
C880        C916   1.476       .  S
C882        O884   1.266       .  A
C882        O888   1.257       .  A
C882       C1744   1.484       .  S
C886       C2284   1.486       .  S
C889        C890   1.404       .  A
C889        C894   1.409       .  A
C890        C891   1.395       .  A
C890        H895   1.084       .  S
C891        C892   1.409       .  A
C891        O896   1.372       .  S
C892        C893   1.403       .  A
C893        C894   1.399       .  A
C893        H897   1.084       .  S
C894        O898   1.371       .  S
O896        H900   0.993       .  S
O898        H899   0.991       .  S
C901        C902   1.403       .  A
C901        C906   1.410       .  A
C902        C903   1.397       .  A
C902        H907   1.084       .  S
C903        C904   1.410       .  A
C903        O908   1.372       .  S
C904        C905   1.403       .  A
C905        C906   1.397       .  A
C905        H909   1.083       .  S
C906        O910   1.372       .  S
O908        H912   0.993       .  S
O910        H911   0.992       .  S
C913        C914   1.405       .  A
C913        C918   1.410       .  A
C914        C915   1.399       .  A
C914        H919   1.083       .  S
C915        C916   1.409       .  A
C915        O920   1.371       .  S
C916        C917   1.404       .  A
C917        C918   1.396       .  A
C917        H921   1.084       .  S
C918        O922   1.372       .  S
O920        H924   0.992       .  S
O922        H923   0.993       .  S
C925        C926   1.402       .  A
C925        C930   1.410       .  A
C926        C927   1.392       .  A
C926        H931   1.084       .  S
C927        C928   1.407       .  A
C927        O932   1.372       .  S
C928        C929   1.405       .  A
C929        C930   1.400       .  A
C929        H933   1.084       .  S
C930        O934   1.371       .  S
O932        H936   0.993       .  S
O934        H935   0.992       .  S
C937        C938   1.403       .  A
C937        C942   1.409       .  A
C938        C939   1.398       .  A
C938        H943   1.084       .  S
C939        C940   1.409       .  A
C939        O944   1.371       .  S
C940        C941   1.404       .  A
C941        C942   1.399       .  A
C941        H945   1.084       .  S
C942        O946   1.372       .  S
O944        H948   0.992       .  S
O946        H947   0.993       .  S
C949        C950   1.403       .  A
C949        C954   1.411       .  A
C950        C951   1.395       .  A
C950        H955   1.084       .  S
C951        C952   1.410       .  A
C951        O956   1.372       .  S
C952        C953   1.405       .  A
C953        C954   1.401       .  A
C953        H957   1.083       .  S
C954        O958   1.371       .  S
O956        H960   0.991       .  S
O958        H959   0.992       .  S
C961        C962   1.406       .  A
C961        C966   1.419       .  A
C962        C963   1.396       .  A
C962        H967   1.081   1_545  S
C963        C964   1.418       .  A
C963        O968   1.371   1_545  S
C964        C965   1.409       .  A
C965        C966   1.405       .  A
C965        H969   1.081       .  S
C966        O970   1.370       .  S
O968        H972   0.992       .  S
O970        H971   0.992       .  S
C973        C974   1.401       .  A
C973        C978   1.408       .  A
C974        C975   1.396   1_565  A
C974        H979   1.084       .  S
C975        C976   1.409   1_545  A
C975        O980   1.371       .  S
C976        C977   1.406       .  A
C977        C978   1.406       .  A
C977        H981   1.083   1_455  S
C978        O982   1.372       .  S
O980        H984   0.991       .  S
O982        H983   0.992       .  S
C985        C986   1.397       .  A
C985        C990   1.406       .  A
C986        C987   1.398       .  A
C986        H991   1.083       .  S
C987        C988   1.417       .  A
C987        O992   1.372       .  S
C988        C989   1.406       .  A
C989        C990   1.405       .  A
C989        H993   1.083       .  S
C990        O994   1.371       .  S
O992        H996   0.993       .  S
O994        H995   0.992       .  S
C997        C998   1.409       .  A
C997       C1002   1.417       .  A
C998        C999   1.395       .  A
C998       H1003   1.081       .  S
C999       C1000   1.417       .  A
C999       O1004   1.372       .  S
C1000      C1001   1.410       .  A
C1001      C1002   1.407       .  A
C1001      H1005   1.081       .  S
C1002      O1006   1.370       .  S
O1004      H1008   0.992       .  S
O1006      H1007   0.992       .  S
C1009      C1010   1.406       .  A
C1009      C1014   1.408       .  A
C1010      C1011   1.407       .  A
C1010      H1015   1.083       .  S
C1011      C1012   1.406       .  A
C1011      O1016   1.371       .  S
C1012      C1013   1.400       .  A
C1013      C1014   1.403       .  A
C1013      H1017   1.084   1_565  S
C1014      O1018   1.374       .  S
O1016      H1020   0.992       .  S
O1018      H1019   0.992       .  S
C1021      C1022   1.403       .  A
C1021      C1026   1.411       .  A
C1022      C1023   1.400       .  A
C1022      H1027   1.083       .  S
C1023      C1024   1.412       .  A
C1023      O1028   1.372       .  S
C1024      C1025   1.401   1_655  A
C1025      C1026   1.400   1_455  A
C1025      H1029   1.084       .  S
C1026      O1030   1.371   1_655  S
O1028      H1032   0.992       .  S
O1030      H1031   0.992       .  S
C1033      C1034   1.407       .  A
C1033      C1038   1.419       .  A
C1034      C1035   1.397       .  A
C1034      H1039   1.084       .  S
C1035      C1036   1.413       .  A
C1035      O1040   1.372       .  S
C1036      C1037   1.405       .  A
C1037      C1038   1.405       .  A
C1037      H1041   1.079       .  S
C1038      O1042   1.371       .  S
O1040      H1044   0.990       .  S
O1042      H1043   0.992       .  S
C1045      C1046   1.404       .  A
C1045      C1050   1.411       .  A
C1046      C1047   1.405       .  A
C1046      H1051   1.083       .  S
C1047      C1048   1.410       .  A
C1047      O1052   1.371       .  S
C1048      C1049   1.403       .  A
C1049      C1050   1.396       .  A
C1049      H1053   1.084       .  S
C1050      O1054   1.373   1_455  S
O1052      H1056   0.992       .  S
O1054      H1055   0.992       .  S
C1057      C1058   1.400       .  A
C1057      C1062   1.401       .  A
C1058      C1059   1.403       .  A
C1058      H1063   1.084   1_455  S
C1059      C1060   1.413       .  A
C1059      O1064   1.371       .  S
C1060      C1061   1.409       .  A
C1061      C1062   1.398       .  A
C1061      H1065   1.083       .  S
C1062      O1066   1.372       .  S
O1064      H1068   0.992       .  S
O1066      H1067   0.992       .  S
C1069      C1070   1.404       .  A
C1069      C1074   1.413   1_565  A
C1070      C1071   1.399       .  A
C1070      H1075   1.077       .  S
C1071      C1072   1.415       .  A
C1071      O1076   1.372       .  S
C1072      C1073   1.405       .  A
C1073      C1074   1.398   1_565  A
C1073      H1077   1.078       .  S
C1074      O1078   1.373       .  S
O1076      H1080   0.993       .  S
O1078      H1079   0.992       .  S
C1081      C1082   1.400       .  A
C1081      C1086   1.410   1_655  A
C1082      C1083   1.396   1_655  A
C1082      H1087   1.077       .  S
C1083      C1084   1.407       .  A
C1083      O1088   1.372       .  S
C1084      C1085   1.406       .  A
C1085      C1086   1.406       .  A
C1085      H1089   1.083       .  S
C1086      O1090   1.371   1_565  S
O1088      H1092   0.991   1_455  S
O1090      H1091   0.992       .  S
C1093      C1094   1.404       .  A
C1093      C1098   1.412       .  A
C1094      C1095   1.401       .  A
C1094      H1099   1.083       .  S
C1095      C1096   1.412       .  A
C1095      O1100   1.372       .  S
C1096      C1097   1.403       .  A
C1097      C1098   1.404       .  A
C1097      H1101   1.084       .  S
C1098      O1102   1.370       .  S
O1100      H1104   0.992       .  S
O1102      H1103   0.992       .  S
C1105      C1106   1.398       .  A
C1105      C1110   1.404       .  A
C1106      C1107   1.397       .  A
C1106      H1111   1.082       .  S
C1107      C1108   1.408       .  A
C1107      O1112   1.371       .  S
C1108      C1109   1.403       .  A
C1109      C1110   1.397       .  A
C1109      H1113   1.084       .  S
C1110      O1114   1.372       .  S
O1112      H1116   0.992       .  S
O1114      H1115   0.992       .  S
C1117      C1118   1.410       .  A
C1117      C1122   1.417       .  A
C1118      C1119   1.397       .  A
C1118      H1123   1.080       .  S
C1119      C1120   1.416       .  A
C1119      O1124   1.372       .  S
C1120      C1121   1.410       .  A
C1121      C1122   1.406       .  A
C1121      H1125   1.081       .  S
C1122      O1126   1.370       .  S
O1124      H1128   0.992       .  S
O1126      H1127   0.992       .  S
C1129      C1130   1.399       .  A
C1129      C1134   1.403       .  A
C1130      C1131   1.399       .  A
C1130      H1135   1.082       .  S
C1131      C1132   1.408       .  A
C1131      O1136   1.371       .  S
C1132      C1133   1.406       .  A
C1133      C1134   1.399       .  A
C1133      H1137   1.084       .  S
C1134      O1138   1.374       .  S
O1136      H1140   0.991       .  S
O1138      H1139   0.992       .  S
C1141      C1142   1.411       .  A
C1141      C1146   1.416       .  A
C1142      C1143   1.408       .  A
C1142      H1147   1.081       .  S
C1143      C1144   1.417       .  A
C1143      O1148   1.370       .  S
C1144      C1145   1.408       .  A
C1145      C1146   1.395       .  A
C1145      H1149   1.081       .  S
C1146      O1150   1.371       .  S
O1148      H1152   0.992       .  S
O1150      H1151   0.992       .  S
C1153      C1154   1.399       .  A
C1153      C1158   1.407       .  A
C1154      C1155   1.395       .  A
C1154      H1159   1.083       .  S
C1155      C1156   1.404       .  A
C1155      O1160   1.367       .  S
C1156      C1157   1.403       .  A
C1157      C1158   1.399       .  A
C1157      H1161   1.084       .  S
C1158      O1162   1.372       .  S
O1160      H1164   0.992       .  S
O1162      H1163   0.992       .  S
C1165      C1166   1.408       .  A
C1165      C1170   1.412       .  A
C1166      C1167   1.406       .  A
C1166      H1171   1.083       .  S
C1167      C1168   1.410       .  A
C1167      O1172   1.372   1_565  S
C1168      C1169   1.403       .  A
C1169      C1170   1.401       .  A
C1169      H1173   1.083       .  S
C1170      O1174   1.370       .  S
O1172      H1176   0.992       .  S
O1174      H1175   0.991       .  S
C1177      C1178   1.404       .  A
C1177      C1182   1.410       .  A
C1178      C1179   1.404       .  A
C1178      H1183   1.083       .  S
C1179      C1180   1.414       .  A
C1179      O1184   1.372       .  S
C1180      C1181   1.401       .  A
C1181      C1182   1.401       .  A
C1181      H1185   1.084       .  S
C1182      O1186   1.368       .  S
O1184      H1188   0.993       .  S
O1186      H1187   0.990       .  S
C1189      C1190   1.397       .  A
C1189      C1194   1.405       .  A
C1190      C1191   1.398       .  A
C1190      H1195   1.079       .  S
C1191      C1192   1.409   1_455  A
C1191      O1196   1.371       .  S
C1192      C1193   1.405   1_655  A
C1193      C1194   1.400       .  A
C1193      H1197   1.084   1_455  S
C1194      O1198   1.374       .  S
O1196      H1200   0.992   1_455  S
O1198      H1199   0.991       .  S
C1201      C1202   1.406       .  A
C1201      C1206   1.412       .  A
C1202      C1203   1.406       .  A
C1202      H1207   1.083       .  S
C1203      C1204   1.410   1_455  A
C1203      O1208   1.372       .  S
C1204      C1205   1.404       .  A
C1205      C1206   1.402   1_655  A
C1205      H1209   1.083       .  S
C1206      O1210   1.370   1_455  S
O1208      H1212   0.992       .  S
O1210      H1211   0.991       .  S
C1213      C1214   1.409       .  A
C1213      C1218   1.418       .  A
C1214      C1215   1.397       .  A
C1214      H1219   1.082       .  S
C1215      C1216   1.417       .  A
C1215      O1220   1.372       .  S
C1216      C1217   1.411       .  A
C1217      C1218   1.409       .  A
C1217      H1221   1.081       .  S
C1218      O1222   1.369       .  S
O1220      H1224   0.991       .  S
O1222      H1223   0.991       .  S
C1225      C1226   1.402       .  A
C1225      C1230   1.413       .  A
C1226      C1227   1.402       .  A
C1226      H1231   1.084       .  S
C1227      C1228   1.411       .  A
C1227      O1232   1.370       .  S
C1228      C1229   1.403       .  A
C1229      C1230   1.401       .  A
C1229      H1233   1.083       .  S
C1230      O1234   1.371       .  S
O1232      H1236   0.992       .  S
O1234      H1235   0.992       .  S
C1237      C1238   1.404       .  A
C1237      C1242   1.409       .  A
C1238      C1239   1.398       .  A
C1238      H1243   1.084       .  S
C1239      C1240   1.409       .  A
C1239      O1244   1.372       .  S
C1240      C1241   1.403       .  A
C1241      C1242   1.395       .  A
C1241      H1245   1.084       .  S
C1242      O1246   1.371       .  S
O1244      H1248   0.991       .  S
O1246      H1247   0.993       .  S
C1249      C1250   1.405       .  A
C1249      C1254   1.415       .  A
C1250      C1251   1.406       .  A
C1250      H1255   1.083       .  S
C1251      C1252   1.408       .  A
C1251      O1256   1.370       .  S
C1252      C1253   1.398       .  A
C1253      C1254   1.399       .  A
C1253      H1257   1.084       .  S
C1254      O1258   1.372       .  S
O1256      H1260   0.990       .  S
O1258      H1259   0.992   1_545  S
C1261      C1262   1.402       .  A
C1261      C1266   1.411       .  A
C1262      C1263   1.396       .  A
C1262      H1267   1.084       .  S
C1263      C1264   1.409       .  A
C1263      O1268   1.372       .  S
C1264      C1265   1.403       .  A
C1265      C1266   1.397       .  A
C1265      H1269   1.084       .  S
C1266      O1270   1.372       .  S
O1268      H1272   0.991       .  S
O1270      H1271   0.993       .  S
C1273      C1274   1.401       .  A
C1273      C1278   1.414       .  A
C1274      C1275   1.399       .  A
C1274      H1279   1.083       .  S
C1275      C1276   1.411       .  A
C1275      O1280   1.371       .  S
C1276      C1277   1.402       .  A
C1277      C1278   1.402       .  A
C1277      H1281   1.084       .  S
C1278      O1282   1.372       .  S
O1280      H1284   0.992       .  S
O1282      H1283   0.992       .  S
C1285      C1286   1.405       .  A
C1285      C1290   1.410       .  A
C1286      C1287   1.401       .  A
C1286      H1291   1.083       .  S
C1287      C1288   1.410       .  A
C1287      O1292   1.371       .  S
C1288      C1289   1.403       .  A
C1289      C1290   1.394       .  A
C1289      H1293   1.084       .  S
C1290      O1294   1.372       .  S
O1292      H1296   0.992       .  S
O1294      H1295   0.993       .  S
C1297      C1298   1.407       .  A
C1297      C1302   1.409       .  A
C1298      C1299   1.394       .  A
C1298      H1303   1.084       .  S
C1299      C1300   1.401       .  A
C1299      O1304   1.372       .  S
C1300      C1301   1.404       .  A
C1301      C1302   1.405       .  A
C1301      H1305   1.084       .  S
C1302      O1306   1.371       .  S
O1304      H1308   0.991       .  S
O1306      H1307   0.991       .  S
C1309      C1310   1.403       .  A
C1309      C1314   1.410       .  A
C1310      C1311   1.394       .  A
C1310      H1315   1.084       .  S
C1311      C1312   1.410       .  A
C1311      O1316   1.372       .  S
C1312      C1313   1.405       .  A
C1313      C1314   1.401       .  A
C1313      H1317   1.083       .  S
C1314      O1318   1.371       .  S
O1316      H1320   0.992       .  S
O1318      H1319   0.992       .  S
C1321      C1322   1.404       .  A
C1321      C1326   1.409       .  A
C1322      C1323   1.396       .  A
C1322      H1327   1.084       .  S
C1323      C1324   1.410       .  A
C1323      O1328   1.372       .  S
C1324      C1325   1.404       .  A
C1325      C1326   1.398       .  A
C1325      H1329   1.083       .  S
C1326      O1330   1.371       .  S
O1328      H1332   0.993       .  S
O1330      H1331   0.992       .  S
C1333      C1334   1.403       .  A
C1333      C1338   1.409       .  A
C1334      C1335   1.394       .  A
C1334      H1339   1.084       .  S
C1335      C1336   1.409       .  A
C1335      O1340   1.372       .  S
C1336      C1337   1.405       .  A
C1337      C1338   1.402       .  A
C1337      H1341   1.083       .  S
C1338      O1342   1.372       .  S
O1340      H1344   0.994       .  S
O1342      H1343   0.992       .  S
C1345      C1346   1.398       .  A
C1345      C1350   1.412       .  A
C1346      C1347   1.398       .  A
C1346      H1351   1.084       .  S
C1347      C1348   1.416       .  A
C1347      O1352   1.371       .  S
C1348      C1349   1.405       .  A
C1349      C1350   1.405       .  A
C1349      H1353   1.083       .  S
C1350      O1354   1.372       .  S
O1352      H1356   0.991       .  S
O1354      H1355   0.991       .  S
C1357      C1358   1.409       .  A
C1357      C1362   1.416       .  A
C1358      C1359   1.399       .  A
C1358      H1363   1.084       .  S
C1359      C1360   1.413       .  A
C1359      O1364   1.371       .  S
C1360      C1361   1.410       .  A
C1361      C1362   1.405       .  A
C1361      H1365   1.078   1_545  S
C1362      O1366   1.368   1_545  S
O1364      H1368   0.992       .  S
O1366      H1367   0.992       .  S
C1369      C1370   1.409       .  A
C1369      C1374   1.413       .  A
C1370      C1371   1.404   1_554  A
C1370      H1375   1.083   1_554  S
C1371      C1372   1.411   1_565  A
C1371      O1376   1.371       .  S
C1372      C1373   1.404   1_556  A
C1373      C1374   1.401   1_545  A
C1373      H1377   1.081       .  S
C1374      O1378   1.371       .  S
O1376      H1380   0.992       .  S
O1378      H1379   0.992   1_565  S
C1381      C1382   1.407       .  A
C1381      C1386   1.416       .  A
C1382      C1383   1.397       .  A
C1382      H1387   1.079       .  S
C1383      C1384   1.421       .  A
C1383      O1388   1.370       .  S
C1384      C1385   1.409       .  A
C1385      C1386   1.403       .  A
C1385      H1389   1.081       .  S
C1386      O1390   1.370       .  S
O1388      H1392   0.991       .  S
O1390      H1391   0.991       .  S
C1393      C1394   1.403   1_556  A
C1393      C1398   1.408       .  A
C1394      C1395   1.399       .  A
C1394      H1399   1.084       .  S
C1395      C1396   1.409       .  A
C1395      O1400   1.371       .  S
C1396      C1397   1.406       .  A
C1397      C1398   1.402   1_554  A
C1397      H1401   1.084       .  S
C1398      O1402   1.372       .  S
O1400      H1404   0.991       .  S
O1402      H1403   0.992       .  S
C1405      C1406   1.403       .  A
C1405      C1410   1.406       .  A
C1406      C1407   1.402       .  A
C1406      H1411   1.084       .  S
C1407      C1408   1.410       .  A
C1407      O1412   1.371       .  S
C1408      C1409   1.409       .  A
C1409      C1410   1.403       .  A
C1409      H1413   1.083       .  S
C1410      O1414   1.372       .  S
O1412      H1416   0.992       .  S
O1414      H1415   0.992       .  S
C1417      C1418   1.409       .  A
C1417      C1422   1.415       .  A
C1418      C1419   1.405       .  A
C1418      H1423   1.080       .  S
C1419      C1420   1.417       .  A
C1419      O1424   1.370       .  S
C1420      C1421   1.408       .  A
C1421      C1422   1.393       .  A
C1421      H1425   1.081       .  S
C1422      O1426   1.373       .  S
O1424      H1428   0.992       .  S
O1426      H1427   0.992       .  S
C1429      C1430   1.405       .  A
C1429      C1434   1.408       .  A
C1430      C1431   1.396       .  A
C1430      H1435   1.084       .  S
C1431      C1432   1.408   1_565  A
C1431      O1436   1.372       .  S
C1432      C1433   1.406       .  A
C1433      C1434   1.405   1_545  A
C1433      H1437   1.083       .  S
C1434      O1438   1.371       .  S
O1436      H1440   0.993       .  S
O1438      H1439   0.990       .  S
C1441      C1442   1.395   1_554  A
C1441      C1446   1.399       .  A
C1442      C1443   1.398       .  A
C1442      H1447   1.084       .  S
C1443      C1444   1.419       .  A
C1443      O1448   1.372       .  S
C1444      C1445   1.407       .  A
C1445      C1446   1.394   1_556  A
C1445      H1449   1.079   1_556  S
C1446      O1450   1.373       .  S
O1448      H1452   0.993       .  S
O1450      H1451   0.993       .  S
C1453      C1454   1.413   1_565  A
C1453      C1458   1.416       .  A
C1454      C1455   1.401   1_545  A
C1454      H1459   1.081       .  S
C1455      C1456   1.408       .  A
C1455      O1460   1.371   1_565  S
C1456      C1457   1.403       .  A
C1457      C1458   1.398       .  A
C1457      H1461   1.083       .  S
C1458      O1462   1.371       .  S
O1460      H1464   0.992   1_545  S
O1462      H1463   0.993       .  S
C1465      C1466   1.407       .  A
C1465      C1470   1.407       .  A
C1466      C1467   1.400   1_556  A
C1466      H1471   1.084   1_565  S
C1467      C1468   1.411       .  A
C1467      O1472   1.372       .  S
C1468      C1469   1.408   1_554  A
C1469      C1470   1.408       .  A
C1469      H1473   1.083   1_556  S
C1470      O1474   1.371       .  S
O1472      H1476   0.993       .  S
O1474      H1475   0.992       .  S
C1477      C1478   1.410       .  A
C1477      C1482   1.412       .  A
C1478      C1479   1.394       .  A
C1478      H1483   1.081       .  S
C1479      C1480   1.408       .  A
C1479      O1484   1.371       .  S
C1480      C1481   1.408       .  A
C1481      C1482   1.399       .  A
C1481      H1485   1.082       .  S
C1482      O1486   1.370       .  S
O1484      H1488   0.992       .  S
O1486      H1487   0.992       .  S
C1489      C1490   1.408       .  A
C1489      C1494   1.419       .  A
C1490      C1491   1.391       .  A
C1490      H1495   1.082       .  S
C1491      C1492   1.416       .  A
C1491      O1496   1.373       .  S
C1492      C1493   1.410       .  A
C1493      C1494   1.411       .  A
C1493      H1497   1.080       .  S
C1494      O1498   1.368       .  S
O1496      H1500   0.992       .  S
O1498      H1499   0.991       .  S
C1501      C1502   1.401       .  A
C1501      C1506   1.409       .  A
C1502      C1503   1.398       .  A
C1502      H1507   1.084       .  S
C1503      C1504   1.411       .  A
C1503      O1508   1.372       .  S
C1504      C1505   1.405       .  A
C1505      C1506   1.408       .  A
C1505      H1509   1.083       .  S
C1506      O1510   1.371       .  S
O1508      H1512   0.992       .  S
O1510      H1511   0.991       .  S
C1513      C1514   1.401       .  A
C1513      C1518   1.405       .  A
C1514      C1515   1.400       .  A
C1514      H1519   1.081       .  S
C1515      C1516   1.405       .  A
C1515      O1520   1.371       .  S
C1516      C1517   1.404       .  A
C1517      C1518   1.398       .  A
C1517      H1521   1.084       .  S
C1518      O1522   1.373       .  S
O1520      H1524   0.991       .  S
O1522      H1523   0.991       .  S
C1525      C1526   1.410       .  A
C1525      C1530   1.417       .  A
C1526      C1527   1.400       .  A
C1526      H1531   1.084       .  S
C1527      C1528   1.415       .  A
C1527      O1532   1.372       .  S
C1528      C1529   1.409       .  A
C1529      C1530   1.410       .  A
C1529      H1533   1.078       .  S
C1530      O1534   1.370       .  S
O1532      H1536   0.990       .  S
O1534      H1535   0.992       .  S
C1537      C1538   1.410       .  A
C1537      C1542   1.413   1_554  A
C1538      C1539   1.395       .  A
C1538      H1543   1.083       .  S
C1539      C1540   1.402   1_554  A
C1539      O1544   1.371       .  S
C1540      C1541   1.398       .  A
C1541      C1542   1.399       .  A
C1541      H1545   1.083       .  S
C1542      O1546   1.370       .  S
O1544      H1548   0.991   1_554  S
O1546      H1547   0.991   1_556  S
C1549      C1550   1.408   1_554  A
C1549      C1554   1.410       .  A
C1550      C1551   1.409       .  A
C1550      H1555   1.083       .  S
C1551      C1552   1.408       .  A
C1551      O1556   1.371       .  S
C1552      C1553   1.405       .  A
C1553      C1554   1.395   1_556  A
C1553      H1557   1.083       .  S
C1554      O1558   1.372       .  S
O1556      H1560   0.992       .  S
O1558      H1559   0.992       .  S
C1561      C1562   1.406       .  A
C1561      C1566   1.416       .  A
C1562      C1563   1.402       .  A
C1562      H1567   1.083       .  S
C1563      C1564   1.406       .  A
C1563      O1568   1.372       .  S
C1564      C1565   1.397       .  A
C1565      C1566   1.399       .  A
C1565      H1569   1.084       .  S
C1566      O1570   1.371       .  S
O1568      H1572   0.992       .  S
O1570      H1571   0.994       .  S
C1573      C1574   1.404       .  A
C1573      C1578   1.413       .  A
C1574      C1575   1.403       .  A
C1574      H1579   1.083       .  S
C1575      C1576   1.404       .  A
C1575      O1580   1.375       .  S
C1576      C1577   1.396       .  A
C1577      C1578   1.396       .  A
C1577      H1581   1.084       .  S
C1578      O1582   1.373   1_565  S
O1580      H1584   0.992       .  S
O1582      H1583   0.992       .  S
C1585      C1586   1.407       .  A
C1585      C1590   1.410       .  A
C1586      C1587   1.407       .  A
C1586      H1591   1.083   1_565  S
C1587      C1588   1.408       .  A
C1587      O1592   1.371       .  S
C1588      C1589   1.402       .  A
C1589      C1590   1.399       .  A
C1589      H1593   1.084       .  S
C1590      O1594   1.371       .  S
O1592      H1596   0.992       .  S
O1594      H1595   0.991       .  S
C1597      C1598   1.409       .  A
C1597      C1602   1.417       .  A
C1598      C1599   1.410       .  A
C1598      H1603   1.081       .  S
C1599      C1600   1.419       .  A
C1599      O1604   1.369       .  S
C1600      C1601   1.407       .  A
C1601      C1602   1.392       .  A
C1601      H1605   1.082       .  S
C1602      O1606   1.372       .  S
O1604      H1608   0.991       .  S
O1606      H1607   0.991       .  S
C1609      C1610   1.399       .  A
C1609      C1614   1.407       .  A
C1610      C1611   1.401       .  A
C1610      H1615   1.084       .  S
C1611      C1612   1.414       .  A
C1611      O1616   1.372       .  S
C1612      C1613   1.405       .  A
C1613      C1614   1.404       .  A
C1613      H1617   1.083       .  S
C1614      O1618   1.371       .  S
O1616      H1620   0.992       .  S
O1618      H1619   0.992       .  S
C1621      C1622   1.413       .  A
C1621      C1626   1.418       .  A
C1622      C1623   1.403       .  A
C1622      H1627   1.083       .  S
C1623      C1624   1.413       .  A
C1623      O1628   1.372       .  S
C1624      C1625   1.407       .  A
C1625      C1626   1.401       .  A
C1625      H1629   1.076       .  S
C1626      O1630   1.366       .  S
O1628      H1632   0.991       .  S
O1630      H1631   0.991       .  S
C1633      C1634   1.403   1_556  A
C1633      C1638   1.413       .  A
C1634      C1635   1.400       .  A
C1634      H1639   1.080       .  S
C1635      C1636   1.412       .  A
C1635      O1640   1.370       .  S
C1636      C1637   1.408       .  A
C1637      C1638   1.409   1_554  A
C1637      H1641   1.083   1_454  S
C1638      O1642   1.372       .  S
O1640      H1644   0.991       .  S
O1642      H1643   0.993       .  S
C1645      C1646   1.410       .  A
C1645      C1650   1.422       .  A
C1646      C1647   1.402       .  A
C1646      H1651   1.083       .  S
C1647      C1648   1.415       .  A
C1647      O1652   1.372       .  S
C1648      C1649   1.407       .  A
C1649      C1650   1.403       .  A
C1649      H1653   1.077       .  S
C1650      O1654   1.369       .  S
O1652      H1656   0.991       .  S
O1654      H1655   0.992       .  S
C1657      C1658   1.403       .  A
C1657      C1662   1.406       .  A
C1658      C1659   1.403       .  A
C1658      H1663   1.082       .  S
C1659      C1660   1.411       .  A
C1659      O1664   1.371   1_655  S
C1660      C1661   1.409       .  A
C1661      C1662   1.404       .  A
C1661      H1665   1.083       .  S
C1662      O1666   1.371       .  S
O1664      H1668   0.992       .  S
O1666      H1667   0.992       .  S
C1669      C1670   1.404       .  A
C1669      C1674   1.409   1_455  A
C1670      C1671   1.401       .  A
C1670      H1675   1.084       .  S
C1671      C1672   1.411       .  A
C1671      O1676   1.372       .  S
C1672      C1673   1.406       .  A
C1673      C1674   1.405   1_455  A
C1673      H1677   1.083       .  S
C1674      O1678   1.372       .  S
O1676      H1680   0.991       .  S
O1678      H1679   0.992       .  S
C1681      C1682   1.412       .  A
C1681      C1686   1.419       .  A
C1682      C1683   1.402       .  A
C1682      H1687   1.084       .  S
C1683      C1684   1.414       .  A
C1683      O1688   1.372       .  S
C1684      C1685   1.408       .  A
C1685      C1686   1.404       .  A
C1685      H1689   1.077       .  S
C1686      O1690   1.366       .  S
O1688      H1692   0.991       .  S
O1690      H1691   0.991       .  S
C1693      C1694   1.404       .  A
C1693      C1698   1.412   1_556  A
C1694      C1695   1.395   1_556  A
C1694      H1699   1.083       .  S
C1695      C1696   1.412       .  A
C1695      O1700   1.372       .  S
C1696      C1697   1.406       .  A
C1697      C1698   1.408       .  A
C1697      H1701   1.083       .  S
C1698      O1702   1.371       .  S
O1700      H1704   0.993       .  S
O1702      H1703   0.991   1_554  S
C1705      C1706   1.408       .  A
C1705      C1710   1.420   1_455  A
C1706      C1707   1.397       .  A
C1706      H1711   1.079       .  S
C1707      C1708   1.400       .  A
C1707      O1712   1.373       .  S
C1708      C1709   1.395       .  A
C1709      C1710   1.398   1_455  A
C1709      H1713   1.084       .  S
C1710      O1714   1.372       .  S
O1712      H1716   0.991       .  S
O1714      H1715   0.993       .  S
C1717      C1718   1.406       .  A
C1717      C1722   1.407   1_554  A
C1718      C1719   1.397       .  A
C1718      H1723   1.082       .  S
C1719      C1720   1.414   1_554  A
C1719      O1724   1.370       .  S
C1720      C1721   1.411       .  A
C1721      C1722   1.397       .  A
C1721      H1725   1.080       .  S
C1722      O1726   1.373       .  S
O1724      H1728   0.992       .  S
O1726      H1727   0.992       .  S
C1729      C1730   1.403       .  A
C1729      C1734   1.411       .  A
C1730      C1731   1.399   1_556  A
C1730      H1735   1.084       .  S
C1731      C1732   1.411   1_455  A
C1731      O1736   1.373       .  S
C1732      C1733   1.403   1_654  A
C1733      C1734   1.408       .  A
C1733      H1737   1.083   1_455  S
C1734      O1738   1.372       .  S
O1736      H1740   0.991       .  S
O1738      H1739   0.992       .  S
C1741      C1742   1.401       .  A
C1741      C1746   1.409       .  A
C1742      C1743   1.401       .  A
C1742      H1747   1.084       .  S
C1743      C1744   1.414       .  A
C1743      O1748   1.372       .  S
C1744      C1745   1.403       .  A
C1745      C1746   1.403       .  A
C1745      H1749   1.083       .  S
C1746      O1750   1.373       .  S
O1748      H1752   0.992       .  S
O1750      H1751   0.992       .  S
C1753      C1754   1.400       .  A
C1753      C1758   1.406       .  A
C1754      C1755   1.402       .  A
C1754      H1759   1.083       .  S
C1755      C1756   1.420       .  A
C1755      O1760   1.371       .  S
C1756      C1757   1.409       .  A
C1757      C1758   1.396       .  A
C1757      H1761   1.075       .  S
C1758      O1762   1.373       .  S
O1760      H1764   0.993       .  S
O1762      H1763   0.992       .  S
C1765      C1766   1.410       .  A
C1765      C1770   1.416       .  A
C1766      C1767   1.404       .  A
C1766      H1771   1.081       .  S
C1767      C1768   1.416       .  A
C1767      O1772   1.370       .  S
C1768      C1769   1.409       .  A
C1769      C1770   1.396       .  A
C1769      H1773   1.080   1_655  S
C1770      O1774   1.371   1_655  S
O1772      H1776   0.992       .  S
O1774      H1775   0.991   1_455  S
C1777      C1778   1.411       .  A
C1777      C1782   1.414       .  A
C1778      C1779   1.397       .  A
C1778      H1783   1.082       .  S
C1779      C1780   1.401       .  A
C1779      O1784   1.372       .  S
C1780      C1781   1.398       .  A
C1781      C1782   1.397       .  A
C1781      H1785   1.084       .  S
C1782      O1786   1.370       .  S
O1784      H1788   0.992       .  S
O1786      H1787   0.991       .  S
C1789      C1790   1.408       .  A
C1789      C1794   1.417       .  A
C1790      C1791   1.398       .  A
C1790      H1795   1.084       .  S
C1791      C1792   1.413       .  A
C1791      O1796   1.372       .  S
C1792      C1793   1.406       .  A
C1793      C1794   1.406       .  A
C1793      H1797   1.079       .  S
C1794      O1798   1.371       .  S
O1796      H1800   0.991       .  S
O1798      H1799   0.992       .  S
C1801      C1802   1.400       .  A
C1801      C1806   1.399   1_556  A
C1802      C1803   1.403       .  A
C1802      H1807   1.084       .  S
C1803      C1804   1.413   1_556  A
C1803      O1808   1.373       .  S
C1804      C1805   1.409       .  A
C1805      C1806   1.397       .  A
C1805      H1809   1.083       .  S
C1806      O1810   1.374       .  S
O1808      H1812   0.992       .  S
O1810      H1811   0.992       .  S
C1813      C1814   1.404       .  A
C1813      C1818   1.411   1_554  A
C1814      C1815   1.401   1_554  A
C1814      H1819   1.084       .  S
C1815      C1816   1.412       .  A
C1815      O1820   1.372       .  S
C1816      C1817   1.402       .  A
C1817      C1818   1.405       .  A
C1817      H1821   1.084       .  S
C1818      O1822   1.371       .  S
O1820      H1824   0.992   1_556  S
O1822      H1823   0.992       .  S
C1825      C1826   1.397       .  A
C1825      C1830   1.405       .  A
C1826      C1827   1.397       .  A
C1826      H1831   1.084       .  S
C1827      C1828   1.415       .  A
C1827      O1832   1.372       .  S
C1828      C1829   1.404       .  A
C1829      C1830   1.399       .  A
C1829      H1833   1.083       .  S
C1830      O1834   1.371       .  S
O1832      H1836   0.993       .  S
O1834      H1835   0.991       .  S
C1837      C1838   1.396       .  A
C1837      C1842   1.402       .  A
C1838      C1839   1.394       .  A
C1838      H1843   1.084       .  S
C1839      C1840   1.414       .  A
C1839      O1844   1.372       .  S
C1840      C1841   1.406       .  A
C1841      C1842   1.401       .  A
C1841      H1845   1.081       .  S
C1842      O1846   1.373   1_455  S
O1844      H1848   0.992       .  S
O1846      H1847   0.992       .  S
C1849      C1850   1.405       .  A
C1849      C1854   1.407       .  A
C1850      C1851   1.404       .  A
C1850      H1855   1.083       .  S
C1851      C1852   1.410   1_455  A
C1851      O1856   1.371       .  S
C1852      C1853   1.401       .  A
C1853      C1854   1.396   1_655  A
C1853      H1857   1.076       .  S
C1854      O1858   1.371       .  S
O1856      H1860   0.992       .  S
O1858      H1859   0.991       .  S
C1861      C1862   1.408       .  A
C1861      C1866   1.417       .  A
C1862      C1863   1.397       .  A
C1862      H1867   1.084       .  S
C1863      C1864   1.413       .  A
C1863      O1868   1.372       .  S
C1864      C1865   1.408       .  A
C1865      C1866   1.407       .  A
C1865      H1869   1.078       .  S
C1866      O1870   1.370       .  S
O1868      H1872   0.990       .  S
O1870      H1871   0.992       .  S
C1873      C1874   1.405       .  A
C1873      C1878   1.416       .  A
C1874      C1875   1.406       .  A
C1874      H1879   1.083       .  S
C1875      C1876   1.410       .  A
C1875      O1880   1.372       .  S
C1876      C1877   1.400       .  A
C1877      C1878   1.402       .  A
C1877      H1881   1.084       .  S
C1878      O1882   1.372       .  S
O1880      H1884   0.992       .  S
O1882      H1883   0.992       .  S
C1885      C1886   1.402       .  A
C1885      C1890   1.414       .  A
C1886      C1887   1.404       .  A
C1886      H1891   1.083       .  S
C1887      C1888   1.412       .  A
C1887      O1892   1.371       .  S
C1888      C1889   1.402       .  A
C1889      C1890   1.402       .  A
C1889      H1893   1.083       .  S
C1890      O1894   1.372       .  S
O1892      H1896   0.992       .  S
O1894      H1895   0.992       .  S
C1897      C1898   1.405       .  A
C1897      C1902   1.410       .  A
C1898      C1899   1.401       .  A
C1898      H1903   1.083       .  S
C1899      C1900   1.410       .  A
C1899      O1904   1.372       .  S
C1900      C1901   1.402       .  A
C1901      C1902   1.394       .  A
C1901      H1905   1.084       .  S
C1902      O1906   1.372       .  S
O1904      H1908   0.991       .  S
O1906      H1907   0.992       .  S
C1909      C1910   1.405       .  A
C1909      C1914   1.416       .  A
C1910      C1911   1.403       .  A
C1910      H1915   1.083       .  S
C1911      C1912   1.408       .  A
C1911      O1916   1.371       .  S
C1912      C1913   1.394       .  A
C1913      C1914   1.394       .  A
C1913      H1917   1.084       .  S
C1914      O1918   1.371       .  S
O1916      H1920   0.991       .  S
O1918      H1919   0.992       .  S
C1921      C1922   1.405       .  A
C1921      C1926   1.414       .  A
C1922      C1923   1.405       .  A
C1922      H1927   1.083       .  S
C1923      C1924   1.408       .  A
C1923      O1928   1.372       .  S
C1924      C1925   1.395       .  A
C1925      C1926   1.396       .  A
C1925      H1929   1.082       .  S
C1926      O1930   1.372       .  S
O1928      H1932   0.990       .  S
O1930      H1931   0.990       .  S
C1933      C1934   1.404       .  A
C1933      C1938   1.411       .  A
C1934      C1935   1.400       .  A
C1934      H1939   1.083       .  S
C1935      C1936   1.410       .  A
C1935      O1940   1.371       .  S
C1936      C1937   1.403       .  A
C1937      C1938   1.396       .  A
C1937      H1941   1.084       .  S
C1938      O1942   1.372       .  S
O1940      H1944   0.993       .  S
O1942      H1943   0.993       .  S
C1945      C1946   1.408       .  A
C1945      C1950   1.410       .  A
C1946      C1947   1.401       .  A
C1946      H1951   1.083       .  S
C1947      C1948   1.406       .  A
C1947      O1952   1.371       .  S
C1948      C1949   1.407       .  A
C1949      C1950   1.405       .  A
C1949      H1953   1.084       .  S
C1950      O1954   1.371   1_556  S
O1952      H1956   0.992       .  S
O1954      H1955   0.991   1_554  S
C1957      C1958   1.407       .  A
C1957      C1962   1.410       .  A
C1958      C1959   1.398       .  A
C1958      H1963   1.084       .  S
C1959      C1960   1.403       .  A
C1959      O1964   1.372       .  S
C1960      C1961   1.403       .  A
C1961      C1962   1.405       .  A
C1961      H1965   1.083       .  S
C1962      O1966   1.371       .  S
O1964      H1968   0.992       .  S
O1966      H1967   0.992       .  S
C1969      C1970   1.403       .  A
C1969      C1974   1.410       .  A
C1970      C1971   1.396       .  A
C1970      H1975   1.084       .  S
C1971      C1972   1.411       .  A
C1971      O1976   1.372       .  S
C1972      C1973   1.404       .  A
C1973      C1974   1.400       .  A
C1973      H1977   1.083       .  S
C1974      O1978   1.371       .  S
O1976      H1980   0.990       .  S
O1978      H1979   0.992       .  S
C1981      C1982   1.408       .  A
C1981      C1986   1.409       .  A
C1982      C1983   1.400       .  A
C1982      H1987   1.083       .  S
C1983      C1984   1.406       .  A
C1983      O1988   1.372       .  S
C1984      C1985   1.403       .  A
C1985      C1986   1.401       .  A
C1985      H1989   1.080       .  S
C1986      O1990   1.372       .  S
O1988      H1992   0.991       .  S
O1990      H1991   0.991       .  S
C1993      C1994   1.401       .  A
C1993      C1998   1.412       .  A
C1994      C1995   1.393       .  A
C1994      H1999   1.084       .  S
C1995      C1996   1.411       .  A
C1995      O2000   1.372       .  S
C1996      C1997   1.405       .  A
C1997      C1998   1.403       .  A
C1997      H2001   1.083       .  S
C1998      O2002   1.371       .  S
O2000      H2004   0.994       .  S
O2002      H2003   0.992       .  S
C2005      C2006   1.401       .  A
C2005      C2010   1.411       .  A
C2006      C2007   1.402       .  A
C2006      H2011   1.084       .  S
C2007      C2008   1.415       .  A
C2007      O2012   1.371       .  S
C2008      C2009   1.405       .  A
C2009      C2010   1.405       .  A
C2009      H2013   1.083       .  S
C2010      O2014   1.372       .  S
O2012      H2016   0.992       .  S
O2014      H2015   0.992       .  S
C2017      C2018   1.405       .  A
C2017      C2022   1.408       .  A
C2018      C2019   1.397       .  A
C2018      H2023   1.084       .  S
C2019      C2020   1.410       .  A
C2019      O2024   1.372       .  S
C2020      C2021   1.404       .  A
C2021      C2022   1.397       .  A
C2021      H2025   1.083       .  S
C2022      O2026   1.371       .  S
O2024      H2028   0.991       .  S
O2026      H2027   0.992       .  S
C2029      C2030   1.404       .  A
C2029      C2034   1.412       .  A
C2030      C2031   1.401       .  A
C2030      H2035   1.083       .  S
C2031      C2032   1.410       .  A
C2031      O2036   1.371       .  S
C2032      C2033   1.403       .  A
C2033      C2034   1.396       .  A
C2033      H2037   1.084       .  S
C2034      O2038   1.372       .  S
O2036      H2040   0.992       .  S
O2038      H2039   0.993       .  S
C2041      C2042   1.407       .  A
C2041      C2046   1.408       .  A
C2042      C2043   1.404       .  A
C2042      H2047   1.081       .  S
C2043      C2044   1.408       .  A
C2043      O2048   1.372       .  S
C2044      C2045   1.407       .  A
C2045      C2046   1.403       .  A
C2045      H2049   1.084       .  S
C2046      O2050   1.372       .  S
O2048      H2052   0.992       .  S
O2050      H2051   0.991       .  S
C2053      C2054   1.402       .  A
C2053      C2058   1.410       .  A
C2054      C2055   1.399       .  A
C2054      H2059   1.084       .  S
C2055      C2056   1.414       .  A
C2055      O2060   1.372       .  S
C2056      C2057   1.403       .  A
C2057      C2058   1.403       .  A
C2057      H2061   1.083       .  S
C2058      O2062   1.370       .  S
O2060      H2064   0.992       .  S
O2062      H2063   0.992       .  S
C2065      C2066   1.410       .  A
C2065      C2070   1.417       .  A
C2066      C2067   1.397       .  A
C2066      H2071   1.084       .  S
C2067      C2068   1.412       .  A
C2067      O2072   1.372       .  S
C2068      C2069   1.410       .  A
C2069      C2070   1.408       .  A
C2069      H2073   1.078       .  S
C2070      O2074   1.369       .  S
O2072      H2076   0.990       .  S
O2074      H2075   0.992       .  S
C2077      C2078   1.396       .  A
C2077      C2082   1.410       .  A
C2078      C2079   1.398       .  A
C2078      H2083   1.084       .  S
C2079      C2080   1.415       .  A
C2079      O2084   1.372       .  S
C2080      C2081   1.408       .  A
C2081      C2082   1.410       .  A
C2081      H2085   1.083       .  S
C2082      O2086   1.371       .  S
O2084      H2088   0.992       .  S
O2086      H2087   0.991       .  S
C2089      C2090   1.400       .  A
C2089      C2094   1.410       .  A
C2090      C2091   1.396       .  A
C2090      H2095   1.081       .  S
C2091      C2092   1.411       .  A
C2091      O2096   1.373       .  S
C2092      C2093   1.404       .  A
C2093      C2094   1.407       .  A
C2093      H2097   1.083       .  S
C2094      O2098   1.371       .  S
O2096      H2100   0.992       .  S
O2098      H2099   0.991       .  S
C2101      C2102   1.407       .  A
C2101      C2106   1.413       .  A
C2102      C2103   1.409       .  A
C2102      H2107   1.081       .  S
C2103      C2104   1.411       .  A
C2103      O2108   1.372       .  S
C2104      C2105   1.404       .  A
C2105      C2106   1.401       .  A
C2105      H2109   1.083       .  S
C2106      O2110   1.372       .  S
O2108      H2112   0.992       .  S
O2110      H2111   0.992       .  S
C2113      C2114   1.409       .  A
C2113      C2118   1.413       .  A
C2114      C2115   1.408       .  A
C2114      H2119   1.078       .  S
C2115      C2116   1.419       .  A
C2115      O2120   1.370       .  S
C2116      C2117   1.411       .  A
C2117      C2118   1.403       .  A
C2117      H2121   1.084       .  S
C2118      O2122   1.371       .  S
O2120      H2124   0.993       .  S
O2122      H2123   0.990       .  S
C2125      C2126   1.397       .  A
C2125      C2130   1.409       .  A
C2126      C2127   1.393       .  A
C2126      H2131   1.084       .  S
C2127      C2128   1.413       .  A
C2127      O2132   1.372       .  S
C2128      C2129   1.406       .  A
C2129      C2130   1.407       .  A
C2129      H2133   1.083       .  S
C2130      O2134   1.371       .  S
O2132      H2136   0.992       .  S
O2134      H2135   0.991       .  S
C2137      C2138   1.402       .  A
C2137      C2142   1.408       .  A
C2138      C2139   1.397       .  A
C2138      H2143   1.083       .  S
C2139      C2140   1.410       .  A
C2139      O2144   1.370       .  S
C2140      C2141   1.408       .  A
C2141      C2142   1.405       .  A
C2141      H2145   1.083       .  S
C2142      O2146   1.372       .  S
O2144      H2148   0.992       .  S
O2146      H2147   0.992       .  S
C2149      C2150   1.398       .  A
C2149      C2154   1.410       .  A
C2150      C2151   1.396       .  A
C2150      H2155   1.084       .  S
C2151      C2152   1.411       .  A
C2151      O2156   1.372       .  S
C2152      C2153   1.404       .  A
C2153      C2154   1.407       .  A
C2153      H2157   1.083       .  S
C2154      O2158   1.372       .  S
O2156      H2160   0.992       .  S
O2158      H2159   0.990       .  S
C2161      C2162   1.404       .  A
C2161      C2166   1.409       .  A
C2162      C2163   1.399       .  A
C2162      H2167   1.083       .  S
C2163      C2164   1.411       .  A
C2163      O2168   1.372       .  S
C2164      C2165   1.409       .  A
C2165      C2166   1.409       .  A
C2165      H2169   1.083       .  S
C2166      O2170   1.371       .  S
O2168      H2172   0.991       .  S
O2170      H2171   0.992       .  S
C2173      C2174   1.406       .  A
C2173      C2178   1.414       .  A
C2174      C2175   1.409       .  A
C2174      H2179   1.079       .  S
C2175      C2176   1.419       .  A
C2175      O2180   1.370       .  S
C2176      C2177   1.407       .  A
C2177      C2178   1.397       .  A
C2177      H2181   1.084       .  S
C2178      O2182   1.372       .  S
O2180      H2184   0.993       .  S
O2182      H2183   0.991       .  S
C2185      C2186   1.396       .  A
C2185      C2190   1.407       .  A
C2186      C2187   1.398       .  A
C2186      H2191   1.084       .  S
C2187      C2188   1.416       .  A
C2187      O2192   1.372       .  S
C2188      C2189   1.405       .  A
C2189      C2190   1.404       .  A
C2189      H2193   1.083       .  S
C2190      O2194   1.371       .  S
O2192      H2196   0.992       .  S
O2194      H2195   0.991       .  S
C2197      C2198   1.403       .  A
C2197      C2202   1.410       .  A
C2198      C2199   1.401       .  A
C2198      H2203   1.081       .  S
C2199      C2200   1.403       .  A
C2199      O2204   1.373       .  S
C2200      C2201   1.399       .  A
C2201      C2202   1.398       .  A
C2201      H2205   1.084       .  S
C2202      O2206   1.373       .  S
O2204      H2208   0.992       .  S
O2206      H2207   0.992       .  S
C2209      C2210   1.403       .  A
C2209      C2214   1.407       .  A
C2210      C2211   1.400       .  A
C2210      H2215   1.082       .  S
C2211      C2212   1.410       .  A
C2211      O2216   1.372       .  S
C2212      C2213   1.407       .  A
C2213      C2214   1.401       .  A
C2213      H2217   1.083       .  S
C2214      O2218   1.372       .  S
O2216      H2220   0.991       .  S
O2218      H2219   0.992       .  S
C2221      C2222   1.398       .  A
C2221      C2226   1.403       .  A
C2222      C2223   1.395       .  A
C2222      H2227   1.084       .  S
C2223      C2224   1.411       .  A
C2223      O2228   1.371       .  S
C2224      C2225   1.405       .  A
C2225      C2226   1.401       .  A
C2225      H2229   1.083       .  S
C2226      O2230   1.373       .  S
O2228      H2232   0.992       .  S
O2230      H2231   0.991       .  S
C2233      C2234   1.407       .  A
C2233      C2238   1.415       .  A
C2234      C2235   1.397       .  A
C2234      H2239   1.084       .  S
C2235      C2236   1.414       .  A
C2235      O2240   1.372       .  S
C2236      C2237   1.409       .  A
C2237      C2238   1.403       .  A
C2237      H2241   1.078       .  S
C2238      O2242   1.368       .  S
O2240      H2244   0.991       .  S
O2242      H2243   0.992       .  S
C2245      C2246   1.408       .  A
C2245      C2250   1.408       .  A
C2246      C2247   1.402       .  A
C2246      H2251   1.081       .  S
C2247      C2248   1.407       .  A
C2247      O2252   1.372       .  S
C2248      C2249   1.406       .  A
C2249      C2250   1.402       .  A
C2249      H2253   1.084       .  S
C2250      O2254   1.371       .  S
O2252      H2256   0.992       .  S
O2254      H2255   0.991       .  S
C2257      C2258   1.400       .  A
C2257      C2262   1.404       .  A
C2258      C2259   1.397       .  A
C2258      H2263   1.082       .  S
C2259      C2260   1.405       .  A
C2259      O2264   1.371       .  S
C2260      C2261   1.401       .  A
C2261      C2262   1.394       .  A
C2261      H2265   1.084       .  S
C2262      O2266   1.372       .  S
O2264      H2268   0.992       .  S
O2266      H2267   0.991       .  S
C2269      C2270   1.406       .  A
C2269      C2274   1.413       .  A
C2270      C2271   1.400       .  A
C2270      H2275   1.083       .  S
C2271      C2272   1.410       .  A
C2271      O2276   1.372       .  S
C2272      C2273   1.402       .  A
C2273      C2274   1.401       .  A
C2273      H2277   1.082       .  S
C2274      O2278   1.371       .  S
O2276      H2280   0.991       .  S
O2278      H2279   0.993       .  S
C2281      C2282   1.406       .  A
C2281      C2286   1.408       .  A
C2282      C2283   1.401       .  A
C2282      H2287   1.080       .  S
C2283      C2284   1.407       .  A
C2283      O2288   1.372       .  S
C2284      C2285   1.409       .  A
C2285      C2286   1.406       .  A
C2285      H2289   1.083       .  S
C2286      O2290   1.371       .  S
O2288      H2292   0.992       .  S
O2290      H2291   0.991       .  S
C2293      C2294   1.398       .  A
C2293      C2298   1.405       .  A
C2294      C2295   1.398       .  A
C2294      H2299   1.082       .  S
C2295      C2296   1.407       .  A
C2295      O2300   1.371       .  S
C2296      C2297   1.405       .  A
C2297      C2298   1.401       .  A
C2297      H2301   1.084       .  S
C2298      O2302   1.374       .  S
O2300      H2304   0.991       .  S
O2302      H2303   0.992       .  S
C2305      C2306   1.410       .  A
C2305      C2310   1.416       .  A
C2306      C2307   1.410       .  A
C2306      H2311   1.079       .  S
C2307      C2308   1.417       .  A
C2307      O2312   1.368       .  S
C2308      C2309   1.409       .  A
C2309      C2310   1.393       .  A
C2309      H2313   1.083       .  S
C2310      O2314   1.373       .  S
O2312      H2316   0.991       .  S
O2314      H2315   0.991       .  S
C2317      C2318   1.402       .  A
C2317      C2322   1.409       .  A
C2318      C2319   1.395       .  A
C2318      H2323   1.084       .  S
C2319      C2320   1.408       .  A
C2319      O2324   1.372       .  S
C2320      C2321   1.405       .  A
C2321      C2322   1.406       .  A
C2321      H2325   1.083       .  S
C2322      O2326   1.371       .  S
O2324      H2328   0.992       .  S
O2326      H2327   0.992       .  S
C2329      C2330   1.401       .  A
C2329      C2334   1.406       .  A
C2330      C2331   1.399       .  A
C2330      H2335   1.084       .  S
C2331      C2332   1.405       .  A
C2331      O2336   1.371       .  S
C2332      C2333   1.401       .  A
C2333      C2334   1.397       .  A
C2333      H2337   1.084       .  S
C2334      O2338   1.372       .  S
O2336      H2340   0.992       .  S
O2338      H2339   0.991       .  S
C2341      C2342   1.406       .  A
C2341      C2346   1.409       .  A
C2342      C2343   1.408       .  A
C2342      H2347   1.083       .  S
C2343      C2344   1.410       .  A
C2343      O2348   1.372       .  S
C2344      C2345   1.400       .  A
C2345      C2346   1.397       .  A
C2345      H2349   1.082       .  S
C2346      O2350   1.372       .  S
O2348      H2352   0.992       .  S
O2350      H2351   0.991       .  S
C2353      C2354   1.397       .  A
C2353      C2358   1.407       .  A
C2354      C2355   1.400       .  A
C2354      H2359   1.084       .  S
C2355      C2356   1.416       .  A
C2355      O2360   1.372       .  S
C2356      C2357   1.405       .  A
C2357      C2358   1.404       .  A
C2357      H2361   1.083       .  S
C2358      O2362   1.371       .  S
O2360      H2364   0.992       .  S
O2362      H2363   0.991       .  S
C2365      C2366   1.412       .  A
C2365      C2370   1.413       .  A
C2366      C2367   1.399       .  A
C2366      H2371   1.083       .  S
C2367      C2368   1.401       .  A
C2367      O2372   1.372       .  S
C2368      C2369   1.398       .  A
C2369      C2370   1.401       .  A
C2369      H2373   1.083       .  S
C2370      O2374   1.371       .  S
O2372      H2376   0.992       .  S
O2374      H2375   0.992       .  S
C2377      C2378   1.405       .  A
C2377      C2382   1.411       .  A
C2378      C2379   1.408       .  A
C2378      H2383   1.084       .  S
C2379      C2380   1.411       .  A
C2379      O2384   1.372       .  S
C2380      C2381   1.403       .  A
C2381      C2382   1.398       .  A
C2381      H2385   1.083       .  S
C2382      O2386   1.372       .  S
O2384      H2388   0.992       .  S
O2386      H2387   0.992       .  S
C2389      C2390   1.406       .  A
C2389      C2394   1.414       .  A
C2390      C2391   1.403       .  A
C2390      H2395   1.078       .  S
C2391      C2392   1.420       .  A
C2391      O2396   1.367       .  S
C2392      C2393   1.408       .  A
C2393      C2394   1.399       .  A
C2393      H2397   1.084       .  S
C2394      O2398   1.372       .  S
O2396      H2400   0.991       .  S
O2398      H2399   0.991       .  S
C2401      C2402   1.406       .  A
C2401      C2406   1.410       .  A
C2402      C2403   1.409       .  A
C2402      H2407   1.083       .  S
C2403      C2404   1.408       .  A
C2403      O2408   1.371       .  S
C2404      C2405   1.399       .  A
C2405      C2406   1.394       .  A
C2405      H2409   1.084       .  S
C2406      O2410   1.372       .  S
O2408      H2412   0.991       .  S
O2410      H2411   0.992       .  S
C2413      C2414   1.402   1_545  A
C2413      C2418   1.415       .  A
C2414      C2415   1.404   1_565  A
C2414      H2419   1.083       .  S
C2415      C2416   1.413       .  A
C2415      O2420   1.373   1_545  S
C2416      C2417   1.402       .  A
C2417      C2418   1.403       .  A
C2417      H2421   1.083       .  S
C2418      O2422   1.372       .  S
O2420      H2424   0.992       .  S
O2422      H2423   0.992       .  S
C2425      C2426   1.403       .  A
C2425      C2430   1.413       .  A
C2426      C2427   1.404       .  A
C2426      H2431   1.083       .  S
C2427      C2428   1.412       .  A
C2427      O2432   1.372       .  S
C2428      C2429   1.402       .  A
C2429      C2430   1.400       .  A
C2429      H2433   1.083       .  S
C2430      O2434   1.372       .  S
O2432      H2436   0.992   1_556  S
O2434      H2435   0.992       .  S
C2437      C2438   1.406       .  A
C2437      C2442   1.408       .  A
C2438      C2439   1.403       .  A
C2438      H2443   1.084       .  S
C2439      C2440   1.408       .  A
C2439      O2444   1.371       .  S
C2440      C2441   1.407       .  A
C2441      C2442   1.401       .  A
C2441      H2445   1.082       .  S
C2442      O2446   1.372   1_554  S
O2444      H2448   0.992       .  S
O2446      H2447   0.992       .  S
C2449      C2450   1.402       .  A
C2449      C2454   1.411       .  A
C2450      C2451   1.394       .  A
C2450      H2455   1.084       .  S
C2451      C2452   1.410       .  A
C2451      O2456   1.372       .  S
C2452      C2453   1.404       .  A
C2453      C2454   1.399       .  A
C2453      H2457   1.083       .  S
C2454      O2458   1.371       .  S
O2456      H2460   0.993       .  S
O2458      H2459   0.993       .  S
C2461      C2462   1.407       .  A
C2461      C2466   1.409   1_655  A
C2462      C2463   1.403       .  A
C2462      H2467   1.083       .  S
C2463      C2464   1.410       .  A
C2463      O2468   1.371       .  S
C2464      C2465   1.409       .  A
C2465      C2466   1.404   1_655  A
C2465      H2469   1.082   1_655  S
C2466      O2470   1.372       .  S
O2468      H2472   0.992       .  S
O2470      H2471   0.991       .  S
C2473      C2474   1.405       .  A
C2473      C2478   1.413       .  A
C2474      C2475   1.404       .  A
C2474      H2479   1.083       .  S
C2475      C2476   1.405       .  A
C2475      O2480   1.372       .  S
C2476      C2477   1.398       .  A
C2477      C2478   1.398       .  A
C2477      H2481   1.084       .  S
C2478      O2482   1.372       .  S
O2480      H2484   0.991       .  S
O2482      H2483   0.992       .  S
C2485      C2486   1.403       .  A
C2485      C2490   1.409       .  A
C2486      C2487   1.398       .  A
C2486      H2491   1.084       .  S
C2487      C2488   1.410       .  A
C2487      O2492   1.371       .  S
C2488      C2489   1.405       .  A
C2489      C2490   1.398       .  A
C2489      H2493   1.083       .  S
C2490      O2494   1.372       .  S
O2492      H2496   0.992       .  S
O2494      H2495   0.993       .  S
C2497      C2498   1.403       .  A
C2497      C2502   1.402       .  A
C2498      C2499   1.407       .  A
C2498      H2503   1.083       .  S
C2499      C2500   1.411       .  A
C2499      O2504   1.372       .  S
C2500      C2501   1.406       .  A
C2501      C2502   1.395       .  A
C2501      H2505   1.083       .  S
C2502      O2506   1.372       .  S
O2504      H2508   0.992       .  S
O2506      H2507   0.992       .  S
C2509      C2510   1.400       .  A
C2509      C2514   1.410       .  A
C2510      C2511   1.397       .  A
C2510      H2515   1.084       .  S
C2511      C2512   1.412       .  A
C2511      O2516   1.372       .  S
C2512      C2513   1.404       .  A
C2513      C2514   1.403       .  A
C2513      H2517   1.083       .  S
C2514      O2518   1.372       .  S
O2516      H2520   0.992       .  S
O2518      H2519   0.992       .  S
C2521      C2522   1.403       .  A
C2521      C2526   1.410       .  A
C2522      C2523   1.394       .  A
C2522      H2527   1.084       .  S
C2523      C2524   1.411       .  A
C2523      O2528   1.372       .  S
C2524      C2525   1.405       .  A
C2525      C2526   1.401       .  A
C2525      H2529   1.083       .  S
C2526      O2530   1.371       .  S
O2528      H2532   0.994       .  S
O2530      H2531   0.992       .  S
C2533      C2534   1.408       .  A
C2533      C2538   1.408       .  A
C2534      C2535   1.405       .  A
C2534      H2539   1.083       .  S
C2535      C2536   1.411       .  A
C2535      O2540   1.371       .  S
C2536      C2537   1.409       .  A
C2537      C2538   1.402       .  A
C2537      H2541   1.080       .  S
C2538      O2542   1.371       .  S
O2540      H2544   0.992       .  S
O2542      H2543   0.992       .  S
C2545      C2546   1.403       .  A
C2545      C2550   1.417       .  A
C2546      C2547   1.401       .  A
C2546      H2551   1.083   1_545  S
C2547      C2548   1.408       .  A
C2547      O2552   1.372       .  S
C2548      C2549   1.401       .  A
C2549      C2550   1.405       .  A
C2549      H2553   1.084       .  S
C2550      O2554   1.372       .  S
O2552      H2556   0.992   1_545  S
O2554      H2555   0.992       .  S
C2557      C2558   1.405       .  A
C2557      C2562   1.410       .  A
C2558      C2559   1.400       .  A
C2558      H2563   1.083       .  S
C2559      C2560   1.409       .  A
C2559      O2564   1.371       .  S
C2560      C2561   1.404       .  A
C2561      C2562   1.396       .  A
C2561      H2565   1.084       .  S
C2562      O2566   1.372       .  S
O2564      H2568   0.992       .  S
O2566      H2567   0.993       .  S
C2569      C2570   1.403       .  A
C2569      C2574   1.413       .  A
C2570      C2571   1.402       .  A
C2570      H2575   1.084       .  S
C2571      C2572   1.411       .  A
C2571      O2576   1.371       .  S
C2572      C2573   1.401       .  A
C2573      C2574   1.401       .  A
C2573      H2577   1.084       .  S
C2574      O2578   1.372       .  S
O2576      H2580   0.990       .  S
O2578      H2579   0.993       .  S
C2581      C2582   1.404       .  A
C2581      C2586   1.412       .  A
C2582      C2583   1.406       .  A
C2582      H2587   1.083   1_554  S
C2583      C2584   1.414       .  A
C2583      O2588   1.373       .  S
C2584      C2585   1.403       .  A
C2585      C2586   1.400       .  A
C2585      H2589   1.083       .  S
C2586      O2590   1.371       .  S
O2588      H2592   0.992   1_554  S
O2590      H2591   0.992       .  S
C2593      C2594   1.404       .  A
C2593      C2598   1.410       .  A
C2594      C2595   1.398       .  A
C2594      H2599   1.083       .  S
C2595      C2596   1.409       .  A
C2595      O2600   1.371       .  S
C2596      C2597   1.405       .  A
C2597      C2598   1.399       .  A
C2597      H2601   1.084       .  S
C2598      O2602   1.372       .  S
O2600      H2604   0.992       .  S
O2602      H2603   0.993       .  S
C2605      C2606   1.402       .  A
C2605      C2610   1.410       .  A
C2606      C2607   1.397       .  A
C2606      H2611   1.084       .  S
C2607      C2608   1.410       .  A
C2607      O2612   1.372       .  S
C2608      C2609   1.404       .  A
C2609      C2610   1.397       .  A
C2609      H2613   1.084       .  S
C2610      O2614   1.372       .  S
O2612      H2616   0.992       .  S
O2614      H2615   0.993       .  S
