geometry optimzed in LAMMPS
_audit_creation_date              2020-11-30 
_audit_creation_method            'lammps2cif' 
_symmetry_space_group_name_H-M    'P1' 
_symmetry_Int_Tables_number       1 
_symmetry_cell_setting            triclinic 
loop_ 
_symmetry_equiv_pos_as_xyz 
  x,y,z 
_cell_length_a                    41.4225784 
_cell_length_b                    41.32756214982238 
_cell_length_c                    43.60918771937196 
_cell_angle_alpha                 86.88178416942965 
_cell_angle_beta                  93.43325308520957 
_cell_angle_gamma                 104.8420589780974 
loop_ 
_atom_site_label 
_atom_site_type_symbol 
_atom_site_fract_x 
_atom_site_fract_y 
_atom_site_fract_z 
_atom_site_charge 
O1          O  0.02771967  0.25605706  0.04538179    -0.74100
O2          O  0.02773026  0.25669438  0.45741784    -0.74100
O3          O  0.02892891  0.30305928  0.49941068    -0.74200
O4          O  0.02662446  0.20969350  0.00339406    -0.74200
O5          O  0.47080247  0.19658833  0.00090181    -0.74200
O6          O  0.47310674  0.28995015  0.49690986    -0.74200
O7          O  0.47201921  0.24358474  0.45492601    -0.74100
O8          O  0.47200895  0.24296186  0.04289162    -0.74200
Ni9        Ni  0.02974429  0.25682915  0.50149106     1.25400
Ni10       Ni  0.46999184  0.24281991  0.99881790     1.25400
C11         C  0.49986536  0.24949129  0.05868872     0.88100
C12         C  0.49987500  0.25015971  0.44161989     0.88000
C13         C  0.00134108  0.31171319  0.49754935     0.88000
C14         C  0.99838878  0.18793175  0.00275568     0.88200
O15         O  0.47311058  0.28995569  0.24692803    -0.74100
O16         O  0.47081921  0.19659547  0.25088373    -0.74100
O17         O  0.47201626  0.24294484  0.29289259    -0.74200
O18         O  0.47202128  0.24360935  0.20492662    -0.74200
O19         O  0.02773212  0.25670898  0.20741744    -0.74200
O20         O  0.02772736  0.25605698  0.29538376    -0.74200
O21         O  0.02664152  0.20970528  0.25338510    -0.74100
O22         O  0.02893283  0.30306699  0.24941943    -0.74200
Ni23       Ni  0.47000243  0.24282446  0.24881860     1.25400
Ni24       Ni  0.02974825  0.25683667  0.25149138     1.25400
C25         C  0.00134450  0.31171991  0.24756624     0.88100
C26         C  0.99840712  0.18794218  0.25273719     0.88000
C27         C  0.99987171  0.24947690  0.30869035     0.88000
C28         C  0.99987616  0.25018130  0.19161982     0.88200
O29         O  0.40934935  0.46839108  0.48672156    -0.80600
O30         O  0.06680644  0.48259337  0.49173612    -0.65300
O31         O  0.47562568  0.47455008  0.00806368    -1.11900
C32         C  0.50400326  0.09104610  0.00653650     1.06300
O33         O  0.09039221  0.03125359  0.01351224    -0.78500
O34         O  0.04167174  0.02997448  0.05322970    -0.66100
Ni35       Ni  0.44281135  0.44415823  0.48326521     1.34900
C36         C  0.01202290  0.02352606  0.06230401     0.85000
O37         O  0.01676769  0.43157820  0.50755059    -0.79000
O38         O  0.47050802  0.41378158  0.47815401    -0.89300
C39         C  0.09215428  0.50465180  0.00122445     0.84600
O40         O  0.45808207  0.46970150  0.44701339    -0.67500
O41         O  0.02924291  0.08587142  0.02207982    -0.86800
C42         C  0.48772412  0.47612130  0.43792715     0.85400
C43         C  0.99573790  0.40860172  0.49371138     1.07000
H44         H  0.02763798  0.03174773  0.47079615     0.38800
O45         O  0.02413296  0.02509707  0.49217132    -1.09400
O46         O  0.48736338  0.02697484  0.04453781    -0.66100
Ni47       Ni  0.47864333  0.02142723  0.00067292     1.26300
O48         O  0.01237965  0.47265209  0.45568888    -0.66300
O49         O  0.48297972  0.06807065  0.99268926    -0.78600
C50         C  0.40760198  0.99500841  0.49898885     0.84800
O51         O  0.43293731  0.01705868  0.00848137    -0.65800
Ni52       Ni  0.05693491  0.05549238  0.01696645     1.27400
Ni53       Ni  0.02110260  0.47821752  0.49955655     1.26100
H54         H  0.47212092  0.46789704  0.02944006     0.39400
O55         O  0.40934105  0.46843123  0.23668272    -0.80600
O56         O  0.06678740  0.48259065  0.24175439    -0.65300
O57         O  0.47560536  0.47456668  0.25805860    -1.11900
C58         C  0.50400024  0.09105322  0.25652638     1.06300
O59         O  0.09039658  0.03129318  0.26345316    -0.78500
O60         O  0.04167167  0.02993966  0.30319273    -0.66100
Ni61       Ni  0.44278541  0.44416392  0.23327231     1.34900
C62         C  0.01203227  0.02352395  0.31228670     0.85000
O63         O  0.01674630  0.43158934  0.25756985    -0.79000
O64         O  0.47046654  0.41376166  0.22820376    -0.89300
C65         C  0.09213991  0.50466613  0.25120193     0.84600
O66         O  0.45806158  0.46964312  0.19699455    -0.67500
O67         O  0.02922094  0.08586274  0.27208989    -0.86800
C68         C  0.48771112  0.47608490  0.18792469     0.85400
C69         C  0.99571519  0.40860165  0.24374413     1.07000
H70         H  0.02761126  0.03175274  0.22077005     0.38800
O71         O  0.02411037  0.02510776  0.24215080    -1.09400
O72         O  0.48737586  0.02701096  0.29453396    -0.66100
Ni73       Ni  0.47863662  0.02144415  0.25066759     1.26300
O74         O  0.01236956  0.47265423  0.20569997    -0.66300
O75         O  0.48297546  0.06808415  0.24267391    -0.78600
C76         C  0.40758851  0.99503288  0.24897706     0.84800
O77         O  0.43293459  0.01707302  0.25849378    -0.65800
Ni78       Ni  0.05692517  0.05550371  0.26694520     1.27400
Ni79       Ni  0.02108239  0.47822876  0.24956136     1.26100
H80         H  0.47210087  0.46792081  0.27943313     0.39400
O81         O  0.30305954  0.02879816  0.50091060    -0.74100
O82         O  0.20994594  0.02683403  0.49703569    -0.74100
O83         O  0.25706440  0.02776872  0.04297268    -0.74200
O84         O  0.25589958  0.02774990  0.45497880    -0.74200
O85         O  0.24267665  0.47192653  0.45710380    -0.74200
O86         O  0.24385128  0.47194752  0.04510154    -0.74200
O87         O  0.19669472  0.47090148  0.99917415    -0.74100
O88         O  0.28980830  0.47286527  0.00305000    -0.74200
Ni89       Ni  0.25695442  0.02978034  0.49889783     1.25400
Ni90       Ni  0.24279878  0.46991727  0.00118230     1.25400
C91         C  0.31160100  0.50110519  0.50245139     0.88100
C92         C  0.18815160  0.49859446  0.99764426     0.88000
C93         C  0.25050121  0.49986066  0.05859080     0.88000
C94         C  0.24924721  0.49983830  0.44148675     0.88200
O95         O  0.24266787  0.47194169  0.20710140    -0.74100
O96         O  0.24384065  0.47196111  0.29509682    -0.74100
O97         O  0.19668175  0.47090764  0.24916666    -0.74200
O98         O  0.28979632  0.47287931  0.25304450    -0.74200
O99         O  0.30304271  0.02881242  0.25090610    -0.74200
O100        O  0.20992643  0.02684091  0.24702658    -0.74200
O101        O  0.25705749  0.02778402  0.29297063    -0.74100
O102        O  0.25588699  0.02776414  0.20497397    -0.74200
Ni103      Ni  0.24278759  0.46992987  0.25117783     1.25400
Ni104      Ni  0.25693722  0.02979345  0.24889307     1.25400
C105        C  0.24923919  0.99985157  0.19148438     0.88100
C106        C  0.25048871  0.99987287  0.30858823     0.87600
C107        C  0.18813570  0.99859841  0.24763299     0.88000
C108        C  0.31158817  0.00112039  0.25244461     0.88200
C109        C  0.25744552  0.03016261  0.38995118    -0.13000
C110        C  0.24939284  0.99984702  0.40747277     0.09100
C111        C  0.24181352  0.46954142  0.39217050    -0.13000
C112        C  0.24228979  0.46955097  0.36012382    -0.13000
C113        C  0.25034513  0.99986624  0.34260269     0.09100
C114        C  0.25792099  0.03017205  0.35790420    -0.13000
H115        H  0.26345900  0.05395779  0.40099188     0.13100
H116        H  0.23551902  0.44573999  0.40495153     0.13100
H117        H  0.23627511  0.44575573  0.34908327     0.13100
H118        H  0.26421360  0.05397344  0.34512285     0.13100
C119        C  0.25797926  0.03016726  0.10790354    -0.13000
C120        C  0.25034647  0.99985773  0.09260397     0.09100
C121        C  0.24223896  0.46954857  0.11012559    -0.13000
C122        C  0.24175676  0.46954659  0.14217108    -0.13000
C123        C  0.24938549  0.99985415  0.15747130     0.09100
C124        C  0.25749971  0.03016547  0.13994949    -0.13000
H125        H  0.26432085  0.05396585  0.09512160     0.13100
H126        H  0.23617807  0.44575135  0.09908587     0.13100
H127        H  0.23541305  0.44574787  0.15495263     0.13100
H128        H  0.26356048  0.05396266  0.15098941     0.13100
C129        C  0.12479998  0.49967883  0.24823640    -0.13000
C130        C  0.15337402  0.49813032  0.24719810    -0.14500
C131        C  0.37492701  0.00003525  0.25189964    -0.13000
C132        C  0.34635002  0.00158690  0.25290152    -0.14500
C133        C  0.15339210  0.49812893  0.99721892    -0.13000
C134        C  0.12481692  0.49967160  0.99826067    -0.14500
C135        C  0.37494128  0.00001273  0.50191366    -0.13000
C136        C  0.34636565  0.00156983  0.50291453    -0.14500
C137        C  0.02637497  0.49549074  0.39492094    -0.13000
C138        C  0.49385807  0.48777774  0.40566248     0.09100
C139        C  0.46743125  0.99224883  0.38552269    -0.13000
C140        C  0.47338410  0.00414297  0.35529127    -0.13000
C141        C  0.00590096  0.01185760  0.34454948     0.09100
C142        C  0.03232814  0.50738451  0.36468880    -0.13000
H143        H  0.04730971  0.49245640  0.40989220     0.13100
H144        H  0.44210353  0.98665911  0.39311326     0.13100
H145        H  0.45244891  0.00717861  0.34032127     0.13100
H146        H  0.05765592  0.51297589  0.35709821     0.13100
C147        C  0.47323781  0.50322208  0.10505262    -0.13000
C148        C  0.00587854  0.01185128  0.09456054     0.09100
C149        C  0.03244566  0.00827395  0.11494146    -0.13000
C150        C  0.02650039  0.99636405  0.14516981    -0.13000
C151        C  0.49385706  0.48773776  0.15566342     0.09100
C152        C  0.46729078  0.49131138  0.13528001    -0.13000
H153        H  0.45219553  0.50552265  0.08988231     0.13100
H154        H  0.05788154  0.01460753  0.10755001     0.13100
H155        H  0.04754350  0.99406722  0.16034061     0.13100
H156        H  0.44185464  0.48498130  0.14267070     0.13100
C157        C  0.00052386  0.37540737  0.24511130    -0.13000
C158        C  0.00192755  0.34660022  0.24622157    -0.14500
C159        C  0.49782082  0.15306262  0.25406868    -0.13000
C160        C  0.49921278  0.12425316  0.25517000    -0.14500
C161        C  0.03012546  0.25772456  0.39250395    -0.13000
C162        C  0.99987470  0.25007615  0.40760378     0.09100
C163        C  0.46962330  0.24216394  0.38986775    -0.13000
C164        C  0.46962221  0.24190410  0.35780654    -0.13000
C165        C  0.99987283  0.24955371  0.34270667     0.09100
C166        C  0.03012441  0.25746449  0.36044263    -0.13000
H167        H  0.05387742  0.26392834  0.40545309     0.13100
H168        H  0.44587250  0.23611327  0.40074937     0.13100
H169        H  0.44587027  0.23570113  0.34485741     0.13100
H170        H  0.05387518  0.26351559  0.34956085     0.13100
C171        C  0.03012165  0.25738378  0.11044686    -0.13000
C172        C  0.99986925  0.24957927  0.09270496     0.09100
C173        C  0.46961959  0.24203923  0.10779949    -0.13000
C174        C  0.46962156  0.24229732  0.13986104    -0.13000
C175        C  0.99987366  0.25010035  0.15760317     0.09100
C176        C  0.03012364  0.25764221  0.14250860    -0.13000
H177        H  0.05387250  0.26334665  0.09957003     0.13100
H178        H  0.44586731  0.23592337  0.09484569     0.13100
H179        H  0.44587064  0.23633350  0.15073768     0.13100
H180        H  0.05387587  0.26375750  0.15546257     0.13100
C181        C  0.00192617  0.34659332  0.49619750    -0.13000
C182        C  0.00052941  0.37540208  0.49508020    -0.14500
C183        C  0.49919807  0.12424116  0.00519068    -0.13000
C184        C  0.49780048  0.15304996  0.00409449    -0.14500
O185        O  0.02772588  0.25605928  0.54538235    -0.74100
O186        O  0.02772301  0.25669185  0.95741755    -0.74100
O187        O  0.02892515  0.30305756  0.99941036    -0.74200
O188        O  0.02663451  0.20969663  0.50339448    -0.74200
O189        O  0.47081241  0.19658812  0.50090195    -0.74200
O190        O  0.47310301  0.28995181  0.99690979    -0.74200
O191        O  0.47201206  0.24358550  0.95492574    -0.74100
O192        O  0.47201509  0.24296068  0.54289156    -0.74200
Ni193      Ni  0.02973741  0.25682661  0.00149064     1.25400
Ni194      Ni  0.46999862  0.24281884  0.49881799     1.25400
C195        C  0.49987124  0.24949172  0.55868897     0.88100
C196        C  0.49986780  0.25015873  0.94161961     0.88000
C197        C  0.00133834  0.31171340  0.99754921     0.88000
C198        C  0.99839977  0.18793342  0.50275601     0.88200
O199        O  0.47311023  0.28995598  0.74692685    -0.74100
O200        O  0.47081606  0.19659511  0.75088299    -0.74100
O201        O  0.47201251  0.24294462  0.79289158    -0.74200
O202        O  0.47202151  0.24360948  0.70492572    -0.74200
O203        O  0.02773229  0.25670755  0.70741857    -0.74200
O204        O  0.02772356  0.25605511  0.79538464    -0.74200
O205        O  0.02663831  0.20970332  0.75338622    -0.74100
O206        O  0.02893238  0.30306568  0.74942042    -0.74200
Ni207      Ni  0.47000069  0.24282448  0.74881755     1.25400
Ni208      Ni  0.02974640  0.25683497  0.75149249     1.25400
C209        C  0.00134452  0.31171951  0.74756612     0.88100
C210        C  0.99840348  0.18794090  0.75273747     0.88000
C211        C  0.99986738  0.24947577  0.80869025     0.88000
C212        C  0.99987699  0.25018072  0.69161995     0.88200
O213        O  0.40935005  0.46839183  0.98672179    -0.80600
O214        O  0.06680720  0.48259485  0.99173657    -0.65300
O215        O  0.47562497  0.47454899  0.50806344    -1.11900
C216        C  0.50401726  0.09104852  0.50653692     1.06300
O217        O  0.09040441  0.03125295  0.51351754    -0.78500
O218        O  0.04168176  0.02997539  0.55323258    -0.66100
Ni219      Ni  0.44281226  0.44415926  0.98326536     1.34900
C220        C  0.01203231  0.02352797  0.56230530     0.85000
O221        O  0.01676859  0.43157942  0.00755091    -0.79000
O222        O  0.47050915  0.41378288  0.97815402    -0.89300
C223        C  0.09215359  0.50465033  0.50122385     0.84600
O224        O  0.45808304  0.46970277  0.94701367    -0.67500
O225        O  0.02925637  0.08587342  0.52208101    -0.86800
C226        C  0.48772512  0.47612258  0.93792748     0.85400
C227        C  0.99573888  0.40860295  0.99371159     1.07000
H228        H  0.02762334  0.03174503  0.97079398     0.38800
O229        O  0.02411949  0.02509494  0.99216956    -1.09400
O230        O  0.48737427  0.02697791  0.54453779    -0.66100
Ni231      Ni  0.47865649  0.02142986  0.50067293     1.26300
O232        O  0.01238056  0.47265336  0.95568924    -0.66300
O233        O  0.48299395  0.06807339  0.49268899    -0.78600
C234        C  0.40758939  0.99500622  0.99898831     0.84800
O235        O  0.43295008  0.01706224  0.50847943    -0.65800
Ni236      Ni  0.05694773  0.05549313  0.51696982     1.27400
Ni237      Ni  0.02110336  0.47821877  0.99955692     1.26100
H238        H  0.47212019  0.46789588  0.52943986     0.39400
O239        O  0.40934219  0.46843077  0.73668292    -0.80600
O240        O  0.06678862  0.48259105  0.74175415    -0.65300
O241        O  0.47560657  0.47456655  0.75805867    -1.11900
C242        C  0.50399483  0.09105133  0.75652696     1.06300
O243        O  0.09039108  0.03129176  0.76345386    -0.78500
O244        O  0.04166479  0.02993615  0.80319311    -0.66100
Ni245      Ni  0.44278668  0.44416366  0.73327249     1.34900
C246        C  0.01202507  0.02352064  0.81228637     0.85000
O247        O  0.01674784  0.43158941  0.75756970    -0.79000
O248        O  0.47046797  0.41376161  0.72820380    -0.89300
C249        C  0.09214105  0.50466652  0.75120189     0.84600
O250        O  0.45806263  0.46964294  0.69699474    -0.67500
O251        O  0.02921447  0.08586011  0.77209161    -0.86800
C252        C  0.48771212  0.47608482  0.68792477     0.85400
C253        C  0.99571676  0.40860169  0.74374399     1.07000
H254        H  0.02760691  0.03175113  0.72077060     0.38800
O255        O  0.02410529  0.02510600  0.74215113    -1.09400
O256        O  0.48736934  0.02700852  0.79453318    -0.66100
Ni257      Ni  0.47863128  0.02144255  0.75066669     1.26300
O258        O  0.01237077  0.47265447  0.70569995    -0.66300
O259        O  0.48297065  0.06808271  0.74267341    -0.78600
C260        C  0.40758327  0.99503203  0.74897413     0.84800
O261        O  0.43292917  0.01707151  0.75849214    -0.65800
Ni262      Ni  0.05691923  0.05550163  0.76694648     1.27400
Ni263      Ni  0.02108362  0.47822885  0.74956134     1.26100
H264        H  0.47210217  0.46792068  0.77943322     0.39400
O265        O  0.30304725  0.02879656  0.00090971    -0.74100
O266        O  0.20993377  0.02683306  0.99703499    -0.74100
O267        O  0.25707613  0.02776974  0.54297344    -0.74200
O268        O  0.25588723  0.02774852  0.95497815    -0.74200
O269        O  0.24267713  0.47192781  0.95710374    -0.74200
O270        O  0.24385086  0.47194629  0.54510165    -0.74200
O271        O  0.19669421  0.47090005  0.49917425    -0.74100
O272        O  0.28980782  0.47286418  0.50305003    -0.74200
Ni273      Ni  0.25694223  0.02977911  0.99889710     1.25400
Ni274      Ni  0.24279831  0.46991601  0.50118239     1.25400
C275        C  0.31160158  0.50110623  0.00245144     0.88100
C276        C  0.18815095  0.49859296  0.49764423     0.88000
C277        C  0.25050074  0.49985947  0.55859084     0.88000
C278        C  0.24924785  0.49983959  0.94148673     0.88200
O279        O  0.24266865  0.47194132  0.70710165    -0.74100
O280        O  0.24384165  0.47196163  0.79509709    -0.74100
O281        O  0.19668272  0.47090790  0.74916690    -0.74200
O282        O  0.28979725  0.47287910  0.75304476    -0.74200
O283        O  0.30303765  0.02881144  0.75090662    -0.74200
O284        O  0.20992131  0.02684003  0.74702566    -0.74200
O285        O  0.25705134  0.02778296  0.79297049    -0.74100
O286        O  0.25588314  0.02776346  0.70497390    -0.74200
Ni287      Ni  0.24278851  0.46992991  0.75117811     1.25400
Ni288      Ni  0.25693214  0.02979253  0.74889294     1.25400
C289        C  0.24923638  0.99985103  0.69148421     0.88100
C290        C  0.25048198  0.99987175  0.80858797     0.87600
C291        C  0.18813052  0.99859753  0.74763207     0.88000
C292        C  0.31158308  0.00111939  0.75244476     0.88200
C293        C  0.25743486  0.03016115  0.88995081    -0.13000
C294        C  0.24938121  0.99984556  0.90747227     0.09100
C295        C  0.24181445  0.46954261  0.89217062    -0.13000
C296        C  0.24229089  0.46955204  0.86012398    -0.13000
C297        C  0.25033671  0.99986497  0.84260238     0.09100
C298        C  0.25791198  0.03017068  0.85790397    -0.13000
H299        H  0.26344805  0.05395632  0.90099154     0.13100
H300        H  0.23551993  0.44574122  0.90495171     0.13100
H301        H  0.23627633  0.44575674  0.84908354     0.13100
H302        H  0.26420547  0.05397215  0.84512279     0.13100
C303        C  0.25798573  0.03016759  0.60790421    -0.13000
C304        C  0.25035498  0.99985828  0.59260445     0.09100
C305        C  0.24223910  0.46954763  0.61012581    -0.13000
C306        C  0.24175731  0.46954574  0.64217131    -0.13000
C307        C  0.24938605  0.99985400  0.65747129     0.09100
C308        C  0.25750222  0.03016545  0.63994989    -0.13000
H309        H  0.26432859  0.05396635  0.59512257     0.13100
H310        H  0.23617812  0.44575033  0.59908616     0.13100
H311        H  0.23541383  0.44574706  0.65495297     0.13100
H312        H  0.26356153  0.05396254  0.65098995     0.13100
C313        C  0.12480118  0.49967938  0.74823636    -0.13000
C314        C  0.15337521  0.49813087  0.74719804    -0.14500
C315        C  0.37492171  0.00003409  0.75189739    -0.13000
C316        C  0.34634489  0.00158585  0.75290067    -0.14500
C317        C  0.15339139  0.49812727  0.49721861    -0.13000
C318        C  0.12481621  0.49966999  0.49826015    -0.14500
C319        C  0.37492864  0.00001052  0.00191299    -0.13000
C320        C  0.34635305  0.00156779  0.00291370    -0.14500
C321        C  0.02637598  0.49549199  0.89492125    -0.13000
C322        C  0.49385908  0.48777903  0.90566279     0.09100
C323        C  0.46742137  0.99224519  0.88552095    -0.13000
C324        C  0.47337528  0.00413930  0.85528968    -0.13000
C325        C  0.00589250  0.01185371  0.84454884     0.09100
C326        C  0.03232917  0.50738547  0.86468906    -0.13000
H327        H  0.04731074  0.49245771  0.90989257     0.13100
H328        H  0.44209336  0.98665583  0.89311084     0.13100
H329        H  0.45244059  0.00717525  0.84031910     0.13100
H330        H  0.05765697  0.51297671  0.85709847     0.13100
C331        C  0.47323799  0.50322090  0.60505258    -0.13000
C332        C  0.00588515  0.01185288  0.59456133     0.09100
C333        C  0.03245030  0.00827360  0.61494376    -0.13000
C334        C  0.02650227  0.99636320  0.64517154    -0.13000
C335        C  0.49385778  0.48773735  0.65566339     0.09100
C336        C  0.46729129  0.49131060  0.63528010    -0.13000
H337        H  0.45219557  0.50552114  0.58988235     0.13100
H338        H  0.05788677  0.01460597  0.60755390     0.13100
H339        H  0.04754402  0.99406485  0.66034352     0.13100
H340        H  0.44185525  0.48498055  0.64267100     0.13100
C341        C  0.00052540  0.37540738  0.74511103    -0.13000
C342        C  0.00192857  0.34660007  0.74622132    -0.14500
C343        C  0.49781618  0.15306106  0.75406922    -0.13000
C344        C  0.49920767  0.12425143  0.75517062    -0.14500
C345        C  0.03011885  0.25772184  0.89250430    -0.13000
C346        C  0.99986776  0.25007493  0.90760351     0.09100
C347        C  0.46961673  0.24216405  0.88986691    -0.13000
C348        C  0.46961637  0.24190420  0.85780568    -0.13000
C349        C  0.99986737  0.24955243  0.84270651     0.09100
C350        C  0.03011854  0.25746177  0.86044310    -0.13000
H351        H  0.05387059  0.26392454  0.90545386     0.13100
H352        H  0.44586567  0.23611446  0.90074805     0.13100
H353        H  0.44586472  0.23570234  0.84485599     0.13100
H354        H  0.05386964  0.26351177  0.84956192     0.13100
C355        C  0.03012592  0.25738447  0.61044802    -0.13000
C356        C  0.99987415  0.24957938  0.59270521     0.09100
C357        C  0.46962384  0.24203855  0.60779880    -0.13000
C358        C  0.46962451  0.24229652  0.63986025    -0.13000
C359        C  0.99987593  0.25010001  0.65760334     0.09100
C360        C  0.03012662  0.25764266  0.64250978    -0.13000
H361        H  0.05387720  0.26334799  0.59957193     0.13100
H362        H  0.44587202  0.23592227  0.59484428     0.13100
H363        H  0.44587309  0.23633220  0.65073608     0.13100
H364        H  0.05387833  0.26375842  0.65546452     0.13100
C365        C  0.00192564  0.34659406  0.99619764    -0.13000
C366        C  0.00053008  0.37540318  0.99508056    -0.14500
C367        C  0.49921214  0.12424364  0.50519116    -0.13000
C368        C  0.49781356  0.15305215  0.50409499    -0.14500
O369        O  0.02772031  0.75605913  0.04538183    -0.74100
O370        O  0.02773020  0.75669366  0.45741816    -0.74100
O371        O  0.02893001  0.80305875  0.49941110    -0.74200
O372        O  0.02662913  0.70969685  0.00339388    -0.74200
O373        O  0.47080700  0.69658709  0.00090206    -0.74200
O374        O  0.47310784  0.78995118  0.49691008    -0.74200
O375        O  0.47201923  0.74358576  0.45492601    -0.74100
O376        O  0.47200947  0.74295923  0.04289210    -0.74200
Ni377      Ni  0.02974389  0.75682821  0.50149138     1.25400
Ni378      Ni  0.46999214  0.74281748  0.99881837     1.25400
C379        C  0.49986598  0.74949093  0.05868898     0.88100
C380        C  0.49987508  0.75015985  0.44162006     0.88000
C381        C  0.00134264  0.81171354  0.49754973     0.88000
C382        C  0.99839472  0.68793312  0.00275568     0.88200
O383        O  0.47311200  0.78995624  0.24692834    -0.74100
O384        O  0.47081978  0.69659589  0.25088388    -0.74100
O385        O  0.47201717  0.74294521  0.29289280    -0.74200
O386        O  0.47202234  0.74360991  0.20492685    -0.74200
O387        O  0.02773312  0.75670907  0.20741769    -0.74200
O388        O  0.02772819  0.75605675  0.29538409    -0.74200
O389        O  0.02664206  0.70970513  0.25338523    -0.74100
O390        O  0.02893423  0.80306700  0.24942003    -0.74200
Ni391      Ni  0.47000344  0.74282496  0.24881882     1.25400
Ni392      Ni  0.02974920  0.75683658  0.25149170     1.25400
C393        C  0.00134606  0.81172021  0.24756684     0.88100
C394        C  0.99840749  0.68794229  0.25273725     0.88000
C395        C  0.99987251  0.74947696  0.30869061     0.88000
C396        C  0.99987717  0.75018159  0.19162006     0.88200
O397        O  0.40935203  0.96839089  0.48672389    -0.80600
O398        O  0.06680925  0.98259419  0.49173717    -0.65300
O399        O  0.47561517  0.97454740  0.00806394    -1.11900
C400        C  0.50401409  0.59104882  0.00653611     1.06300
O401        O  0.09040237  0.53125501  0.01351458    -0.78500
O402        O  0.04168061  0.52997657  0.05323064    -0.66100
Ni403      Ni  0.44281436  0.94415873  0.48326678     1.34900
C404        C  0.01203142  0.52352865  0.06230405     0.85000
O405        O  0.01677075  0.93157886  0.50755162    -0.79000
O406        O  0.47051135  0.91378259  0.47815476    -0.89300
C407        C  0.09214389  0.00464960  0.00122345     0.84600
O408        O  0.45808460  0.96970253  0.44701506    -0.67500
O409        O  0.02925356  0.58587408  0.02207975    -0.86800
C410        C  0.48772661  0.97612254  0.43792861     0.85400
C411        C  0.99574108  0.90860252  0.49371221     1.07000
H412        H  0.02763405  0.53174690  0.47079414     0.38800
O413        O  0.02412970  0.52509644  0.49216952    -1.09400
O414        O  0.48737270  0.52697795  0.04453710    -0.66100
Ni415      Ni  0.47865396  0.52143004  0.00067225     1.26300
O416        O  0.01238234  0.97265333  0.45569010    -0.66300
O417        O  0.48299075  0.56807347  0.99268850    -0.78600
C418        C  0.40759923  0.49500786  0.49898788     0.84800
O419        O  0.43294778  0.51706190  0.00847964    -0.65800
Ni420      Ni  0.05694531  0.55549442  0.01696765     1.27400
Ni421      Ni  0.02110556  0.97821821  0.49955787     1.26100
H422        H  0.47211040  0.96789423  0.02944026     0.39400
O423        O  0.40934143  0.96842978  0.23668641    -0.80600
O424        O  0.06678808  0.98259139  0.24175391    -0.65300
O425        O  0.47560645  0.97456672  0.25806038    -1.11900
C426        C  0.50399971  0.59105309  0.25652575     1.06300
O427        O  0.09039596  0.53129339  0.26345204    -0.78500
O428        O  0.04167064  0.52993879  0.30319172    -0.66100
Ni429      Ni  0.44278595  0.94416301  0.23327534     1.34900
C430        C  0.01203113  0.52352302  0.31228549     0.85000
O431        O  0.01674791  0.93158980  0.25757055    -0.79000
O432        O  0.47046723  0.91376116  0.22820604    -0.89300
C433        C  0.09214060  0.00466638  0.25120225     0.84600
O434        O  0.45806049  0.96964169  0.19699697    -0.67500
O435        O  0.02921992  0.58586223  0.27208968    -0.86800
C436        C  0.48770966  0.97608408  0.18792616     0.85400
C437        C  0.99571659  0.90860175  0.24374552     1.07000
H438        H  0.02761107  0.53175246  0.22076936     0.38800
O439        O  0.02410987  0.52510756  0.24214993    -1.09400
O440        O  0.48737492  0.52701038  0.29453267    -0.66100
Ni441      Ni  0.47863602  0.52144416  0.25066624     1.26300
O442        O  0.01236906  0.97265451  0.20570070    -0.66300
O443        O  0.48297517  0.56808426  0.24267280    -0.78600
C444        C  0.40758799  0.49503366  0.24897456     0.84800
O445        O  0.43293401  0.51707316  0.25849233    -0.65800
Ni446      Ni  0.05692436  0.55550352  0.26694456     1.27400
Ni447      Ni  0.02108329  0.97822911  0.24956202     1.26100
H448        H  0.47210272  0.96792125  0.27943504     0.39400
O449        O  0.30305698  0.52879791  0.50090986    -0.74100
O450        O  0.20994341  0.52683391  0.49703503    -0.74100
O451        O  0.25707453  0.52777094  0.04297280    -0.74200
O452        O  0.25589703  0.52774968  0.45497821    -0.74200
O453        O  0.24267925  0.97192675  0.45710430    -0.74200
O454        O  0.24384109  0.97194531  0.04510167    -0.74200
O455        O  0.19668434  0.97089919  0.99917438    -0.74100
O456        O  0.28979778  0.97286284  0.00305005    -0.74200
Ni457      Ni  0.25695191  0.52978019  0.49889719     1.25400
Ni458      Ni  0.24278832  0.96991494  0.00118243     1.25400
C459        C  0.31160365  0.00110549  0.50245219     0.88100
C460        C  0.18814121  0.99859216  0.99764424     0.88000
C461        C  0.25049150  0.99985853  0.05859082     0.88000
C462        C  0.24924974  0.99983853  0.44148728     0.88200
O463        O  0.24266751  0.97194083  0.20710215    -0.74100
O464        O  0.24384143  0.97196089  0.29509753    -0.74100
O465        O  0.19668215  0.97090721  0.24916769    -0.74200
O466        O  0.28979666  0.97287867  0.25304499    -0.74200
O467        O  0.30304224  0.52881307  0.25090595    -0.74200
O468        O  0.20992587  0.52684134  0.24702584    -0.74200
O469        O  0.25705641  0.52778423  0.29297025    -0.74100
O470        O  0.25588720  0.52776501  0.20497361    -0.74200
Ni471      Ni  0.24278792  0.96992934  0.25117859     1.25400
Ni472      Ni  0.25693671  0.52979399  0.24889268     1.25400
C473        C  0.24924015  0.49985258  0.19148387     0.88100
C474        C  0.25048755  0.49987299  0.30858769     0.87600
C475        C  0.18813518  0.49859878  0.24763212     0.88000
C476        C  0.31158776  0.50112107  0.25244412     0.88200
C477        C  0.25744350  0.53016233  0.38995070    -0.13000
C478        C  0.24939040  0.49984675  0.40747222     0.09100
C479        C  0.24181604  0.96954165  0.39217113    -0.13000
C480        C  0.24229200  0.96955112  0.36012447    -0.13000
C481        C  0.25034344  0.49986616  0.34260216     0.09100
C482        C  0.25791943  0.53017191  0.35790377    -0.13000
H483        H  0.26345712  0.55395751  0.40099147     0.13100
H484        H  0.23552178  0.94574023  0.40495223     0.13100
H485        H  0.23627740  0.94575583  0.34908400     0.13100
H486        H  0.26421253  0.55397337  0.34512256     0.13100
C487        C  0.25798617  0.53016902  0.10790357    -0.13000
C488        C  0.25035453  0.49985960  0.09260386     0.09100
C489        C  0.24223206  0.96954689  0.11012602    -0.13000
C490        C  0.24175232  0.96954509  0.14217165    -0.13000
C491        C  0.24938854  0.49985553  0.15747088     0.09100
C492        C  0.25750414  0.53016695  0.13994936    -0.13000
H493        H  0.26432864  0.55396773  0.09512184     0.13100
H494        H  0.23617031  0.94574954  0.09908637     0.13100
H495        H  0.23540944  0.94574644  0.15495339     0.13100
H496        H  0.26356413  0.55396406  0.15098940     0.13100
C497        C  0.12480063  0.99967893  0.24823687    -0.13000
C498        C  0.15337459  0.99813012  0.24719881    -0.14500
C499        C  0.37492648  0.50003593  0.25189759    -0.13000
C500        C  0.34634959  0.50158764  0.25290034    -0.14500
C501        C  0.15338169  0.99812655  0.99721846    -0.13000
C502        C  0.12480647  0.99966923  0.99825975    -0.14500
C503        C  0.37493857  0.50001228  0.50191273    -0.13000
C504        C  0.34636298  0.50156945  0.50291361    -0.14500
C505        C  0.02637708  0.99549218  0.39492207    -0.13000
C506        C  0.49386023  0.98777912  0.40566391     0.09100
C507        C  0.46742934  0.49224741  0.38552099    -0.13000
C508        C  0.47338246  0.50414159  0.35528964    -0.13000
C509        C  0.00589940  0.51185630  0.34454816     0.09100
C510        C  0.03232992  0.00738585  0.36468987    -0.13000
H511        H  0.04731195  0.99245784  0.40989314     0.13100
H512        H  0.44210147  0.48665762  0.39311132     0.13100
H513        H  0.45244737  0.50717726  0.34031948     0.13100
H514        H  0.05765758  0.01297708  0.35709900     0.13100
C515        C  0.47323155  0.00321893  0.10505424    -0.13000
C516        C  0.00588539  0.51185367  0.09456028     0.09100
C517        C  0.03245128  0.50827516  0.11494215    -0.13000
C518        C  0.02650426  0.49636472  0.14517010    -0.13000
C519        C  0.49385384  0.98773639  0.15566449     0.09100
C520        C  0.46728633  0.99130878  0.13528204    -0.13000
H521        H  0.45218839  0.00551852  0.08988469     0.13100
H522        H  0.05788754  0.51460811  0.10755169     0.13100
H523        H  0.04754649  0.49406687  0.16034163     0.13100
H524        H  0.44185060  0.98497813  0.14267382     0.13100
C525        C  0.00052579  0.87540770  0.24511245    -0.13000
C526        C  0.00192946  0.84660057  0.24622249    -0.14500
C527        C  0.49782079  0.65306264  0.25406845    -0.13000
C528        C  0.49921243  0.62425310  0.25516952    -0.14500
C529        C  0.03012584  0.75772388  0.39250439    -0.13000
C530        C  0.99987493  0.75007623  0.40760399     0.09100
C531        C  0.46962368  0.74216480  0.38986777    -0.13000
C532        C  0.46962282  0.74190497  0.35780659    -0.13000
C533        C  0.99987350  0.74955376  0.34270693     0.09100
C534        C  0.03012498  0.75746381  0.36044308    -0.13000
H535        H  0.05387769  0.76392709  0.40545370     0.13100
H536        H  0.44587276  0.73611473  0.40074919     0.13100
H537        H  0.44587093  0.73570264  0.34485728     0.13100
H538        H  0.05387581  0.76351432  0.34956147     0.13100
C539        C  0.03012248  0.75738459  0.11044696    -0.13000
C540        C  0.99987004  0.74957880  0.09270523     0.09100
C541        C  0.46962044  0.74203771  0.10779990    -0.13000
C542        C  0.46962249  0.74229612  0.13986141    -0.13000
C543        C  0.99987461  0.75010044  0.15760340     0.09100
C544        C  0.03012455  0.75764328  0.14250871    -0.13000
H545        H  0.05387328  0.76334835  0.09957002     0.13100
H546        H  0.44586812  0.73592091  0.09484618     0.13100
H547        H  0.44587158  0.73633145  0.15073815     0.13100
H548        H  0.05387681  0.76375959  0.15546258     0.13100
C549        C  0.00192871  0.84659391  0.49619810    -0.13000
C550        C  0.00053247  0.87540282  0.49508093    -0.14500
C551        C  0.49920854  0.62424375  0.00519049    -0.13000
C552        C  0.49780934  0.65305206  0.00409444    -0.14500
O553        O  0.02772519  0.75605819  0.54538263    -0.74100
O554        O  0.02772320  0.75669446  0.95741753    -0.74100
O555        O  0.02892139  0.80305896  0.99941054    -0.74200
O556        O  0.02663261  0.70969544  0.50339466    -0.74200
O557        O  0.47081057  0.69658848  0.50090171    -0.74200
O558        O  0.47309912  0.78994857  0.99691046    -0.74200
O559        O  0.47201213  0.74358357  0.95492618    -0.74100
O560        O  0.47201446  0.74296107  0.54289154    -0.74200
Ni561      Ni  0.02973788  0.75682916  0.00149063     1.25400
Ni562      Ni  0.46999829  0.74281960  0.49881796     1.25400
C563        C  0.49987051  0.74949130  0.55868911     0.88100
C564        C  0.49986783  0.75015909  0.94161982     0.88000
C565        C  0.00133319  0.81171215  0.99754967     0.88000
C566        C  0.99839745  0.68793290  0.50275590     0.88200
O567        O  0.47310711  0.78995407  0.74692728    -0.74100
O568        O  0.47081742  0.69659426  0.75088301    -0.74100
O569        O  0.47201186  0.74294301  0.79289186    -0.74200
O570        O  0.47202045  0.74360831  0.70492589    -0.74200
O571        O  0.02773129  0.75670887  0.70741850    -0.74200
O572        O  0.02772296  0.75605608  0.79538460    -0.74200
O573        O  0.02663968  0.70970500  0.75338611    -0.74100
O574        O  0.02892933  0.80306627  0.74942041    -0.74200
Ni575      Ni  0.46999981  0.74282300  0.74881780     1.25400
Ni576      Ni  0.02974559  0.75683620  0.75149242     1.25400
C577        C  0.00134073  0.81171868  0.74756639     0.88100
C578        C  0.99840553  0.68794151  0.75273732     0.88000
C579        C  0.99986680  0.74947547  0.80869038     0.88000
C580        C  0.99987592  0.75018080  0.69162000     0.88200
O581        O  0.40933981  0.96839014  0.98672086    -0.80600
O582        O  0.06679667  0.98259191  0.99173700    -0.65300
O583        O  0.47562792  0.97454980  0.50806478    -1.11900
C584        C  0.50401382  0.59104775  0.50653610     1.06300
O585        O  0.09040179  0.53125361  0.51351389    -0.78500
O586        O  0.04168033  0.52997514  0.55323024    -0.66100
Ni587      Ni  0.44280165  0.94415679  0.98326554     1.34900
C588        C  0.01203124  0.52352740  0.56230381     0.85000
O589        O  0.01675809  0.93157683  0.00755162    -0.79000
O590        O  0.47049820  0.91377974  0.97815532    -0.89300
C591        C  0.09215632  0.00465041  0.50122617     0.84600
O592        O  0.45807286  0.96969943  0.94701348    -0.67500
O593        O  0.02925328  0.58587282  0.52207964    -0.86800
C594        C  0.48771504  0.97611903  0.93792758     0.85400
C595        C  0.99572832  0.90860020  0.99371254     1.07000
H596        H  0.02763474  0.53174800  0.97079454     0.38800
O597        O  0.02413031  0.52509762  0.99216988    -1.09400
O598        O  0.48737243  0.52697678  0.54453699    -0.66100
Ni599      Ni  0.47865343  0.52142899  0.50067214     1.26300
O600        O  0.01237028  0.97264996  0.95568968    -0.66300
O601        O  0.48299034  0.56807250  0.49268850    -0.78600
C602        C  0.40759979  0.49500865  0.99898796     0.84800
O603        O  0.43294728  0.51706092  0.50847974    -0.65800
Ni604      Ni  0.05694486  0.55549307  0.51696726     1.27400
Ni605      Ni  0.02109281  0.97821609  0.99955720     1.26100
H606        H  0.47212323  0.96789698  0.52944124     0.39400
O607        O  0.40933652  0.96842985  0.73668195    -0.80600
O608        O  0.06678284  0.98258907  0.74175600    -0.65300
O609        O  0.47560044  0.97456504  0.75805890    -1.11900
C610        C  0.50400022  0.59105301  0.75652579     1.06300
O611        O  0.09039691  0.53129360  0.76345221    -0.78500
O612        O  0.04167165  0.52993925  0.80319187    -0.66100
Ni613      Ni  0.44278105  0.94416265  0.73327183     1.34900
C614        C  0.01203213  0.52352339  0.81228559     0.85000
O615        O  0.01674143  0.93158770  0.75757074    -0.79000
O616        O  0.47046236  0.91376045  0.72820365    -0.89300
C617        C  0.09213526  0.00466469  0.75120351     0.84600
O618        O  0.45805808  0.96964225  0.69699444    -0.67500
O619        O  0.02922071  0.58586244  0.77208949    -0.86800
C620        C  0.48770786  0.97608385  0.68792517     0.85400
C621        C  0.99571064  0.90860021  0.74374449     1.07000
H622        H  0.02761195  0.53175253  0.72076951     0.38800
O623        O  0.02411080  0.52510760  0.74215005    -1.09400
O624        O  0.48737585  0.52701035  0.79453268    -0.66100
Ni625      Ni  0.47863697  0.52144400  0.75066632     1.26300
O626        O  0.01236583  0.97265295  0.70570093    -0.66300
O627        O  0.48297579  0.56808403  0.74267291    -0.78600
C628        C  0.40758906  0.49503318  0.74897474     0.84800
O629        O  0.43293502  0.51707277  0.75849245    -0.65800
Ni630      Ni  0.05692523  0.55550371  0.76694456     1.27400
Ni631      Ni  0.02107769  0.97822716  0.74956241     1.26100
H632        H  0.47209541  0.96791894  0.77943339     0.39400
O633        O  0.30305767  0.52879900  0.00090994    -0.74100
O634        O  0.20994416  0.52683536  0.99703504    -0.74100
O635        O  0.25707386  0.52776971  0.54297277    -0.74200
O636        O  0.25589773  0.52775097  0.95497822    -0.74200
O637        O  0.24266655  0.97192536  0.95710382    -0.74200
O638        O  0.24385328  0.97194633  0.54510213    -0.74200
O639        O  0.19669678  0.97090017  0.49917472    -0.74100
O640        O  0.28981050  0.97286445  0.50305068    -0.74200
Ni641      Ni  0.25695262  0.52978146  0.99889722     1.25400
Ni642      Ni  0.24280091  0.96991619  0.50118288     1.25400
C643        C  0.31159110  0.00110375  0.00245137     0.88100
C644        C  0.18815350  0.99859308  0.49764497     0.88000
C645        C  0.25050270  0.99985943  0.55859141     0.88000
C646        C  0.24923737  0.99983710  0.94148673     0.88200
O647        O  0.24266354  0.97194015  0.70710175    -0.74100
O648        O  0.24383536  0.97195984  0.79509717    -0.74100
O649        O  0.19667697  0.97090634  0.74916665    -0.74200
O650        O  0.28979154  0.97287770  0.75304518    -0.74200
O651        O  0.30304347  0.52881286  0.75090587    -0.74200
O652        O  0.20992716  0.52684160  0.74702563    -0.74200
O653        O  0.25705780  0.52778477  0.79297008    -0.74100
O654        O  0.25588828  0.52776464  0.70497346    -0.74200
Ni655      Ni  0.24278279  0.96992843  0.75117819     1.25400
Ni656      Ni  0.25693797  0.52979403  0.74889251     1.25400
C657        C  0.24924100  0.49985208  0.69148391     0.88100
C658        C  0.25048874  0.49987367  0.80858774     0.87600
C659        C  0.18813633  0.49859914  0.74763208     0.88000
C660        C  0.31158885  0.50112077  0.75244425     0.88200
C661        C  0.25744424  0.53016355  0.88995061    -0.13000
C662        C  0.24939119  0.49984800  0.90747223     0.09100
C663        C  0.24180488  0.96954026  0.89217058    -0.13000
C664        C  0.24228237  0.96954984  0.86012402    -0.13000
C665        C  0.25034456  0.49986714  0.84260219     0.09100
C666        C  0.25792041  0.53017299  0.85790367    -0.13000
H667        H  0.26345762  0.55395873  0.90099131     0.13100
H668        H  0.23551000  0.94573880  0.90495159     0.13100
H669        H  0.23626811  0.94575457  0.84908351     0.13100
H670        H  0.26421354  0.55397437  0.84512237     0.13100
C671        C  0.25798606  0.53016802  0.60790350    -0.13000
C672        C  0.25035434  0.49985854  0.59260392     0.09100
C673        C  0.24223880  0.96954725  0.61012609    -0.13000
C674        C  0.24175523  0.96954516  0.64217147    -0.13000
C675        C  0.24938917  0.49985477  0.65747095     0.09100
C676        C  0.25750447  0.53016613  0.63994930    -0.13000
H677        H  0.26432830  0.55396666  0.59512166     0.13100
H678        H  0.23617843  0.94575003  0.59908633     0.13100
H679        H  0.23541117  0.94574638  0.65495294     0.13100
H680        H  0.26356453  0.55396328  0.65098923     0.13100
C681        C  0.12479544  0.99967780  0.74823750    -0.13000
C682        C  0.15336941  0.99812925  0.74719851    -0.14500
C683        C  0.37492754  0.50003539  0.75189776    -0.13000
C684        C  0.34635066  0.50158717  0.75290051    -0.14500
C685        C  0.15339399  0.99812741  0.49721994    -0.13000
C686        C  0.12481887  0.99967013  0.49826212    -0.14500
C687        C  0.37493911  0.50001299  0.00191278    -0.13000
C688        C  0.34636355  0.50157033  0.00291366    -0.14500
C689        C  0.02636671  0.99548779  0.89492193    -0.13000
C690        C  0.49384958  0.98777518  0.90566291     0.09100
C691        C  0.46743033  0.49224862  0.88552127    -0.13000
C692        C  0.47338352  0.50414257  0.85528984    -0.13000
C693        C  0.00590045  0.51185707  0.84454835     0.09100
C694        C  0.03232068  0.00738156  0.86468994    -0.13000
H695        H  0.04730111  0.99245320  0.90989357     0.13100
H696        H  0.44210249  0.48665891  0.89311156     0.13100
H697        H  0.45244847  0.50717815  0.84031960     0.13100
H698        H  0.05764865  0.01297269  0.85709985     0.13100
C699        C  0.47323723  0.00322198  0.60505292    -0.13000
C700        C  0.00588546  0.51185261  0.59456007     0.09100
C701        C  0.03245155  0.50827446  0.61494182    -0.13000
C702        C  0.02650482  0.49636432  0.64516983    -0.13000
C703        C  0.49385476  0.98773685  0.65566410     0.09100
C704        C  0.46728920  0.99131120  0.63528014    -0.13000
H705        H  0.45219548  0.00552310  0.58988214     0.13100
H706        H  0.05788779  0.51460756  0.60755124     0.13100
H707        H  0.04754726  0.49406681  0.66034129     0.13100
H708        H  0.44185285  0.98498156  0.64267027     0.13100
C709        C  0.00051935  0.87540594  0.74511150    -0.13000
C710        C  0.00192322  0.84659885  0.74622173    -0.14500
C711        C  0.49781994  0.65306211  0.75406864    -0.13000
C712        C  0.49921238  0.62425280  0.75516972    -0.14500
C713        C  0.03011868  0.75772445  0.89250426    -0.13000
C714        C  0.99986763  0.75007534  0.90760371     0.09100
C715        C  0.46961650  0.74216224  0.88986734    -0.13000
C716        C  0.46961598  0.74190204  0.85780610    -0.13000
C717        C  0.99986692  0.74955230  0.84270668     0.09100
C718        C  0.03011816  0.75746410  0.86044303    -0.13000
H719        H  0.05387043  0.76392904  0.90545360     0.13100
H720        H  0.44586551  0.73611110  0.90074870     0.13100
H721        H  0.44586428  0.73569834  0.84485661     0.13100
H722        H  0.05386916  0.76351585  0.84956162     0.13100
C723        C  0.03012493  0.75738454  0.61044815    -0.13000
C724        C  0.99987324  0.74957904  0.59270531     0.09100
C725        C  0.46962294  0.74203800  0.60779883    -0.13000
C726        C  0.46962352  0.74229599  0.63986028    -0.13000
C727        C  0.99987486  0.75010000  0.65760340     0.09100
C728        C  0.03012553  0.75764292  0.64250983    -0.13000
H729        H  0.05387626  0.76334825  0.59957211     0.13100
H730        H  0.44587115  0.73592146  0.59484427     0.13100
H731        H  0.44587207  0.73633131  0.65073607     0.13100
H732        H  0.05387727  0.76375898  0.65546459     0.13100
C733        C  0.00191749  0.84659209  0.99619814    -0.13000
C734        C  0.00052023  0.87540069  0.99508121    -0.14500
C735        C  0.49920854  0.62424280  0.50519060    -0.13000
C736        C  0.49781032  0.65305141  0.50409463    -0.14500
O737        O  0.52771966  0.25605705  0.04538179    -0.74100
O738        O  0.52773021  0.25669438  0.45741784    -0.74100
O739        O  0.52892895  0.30305930  0.49941068    -0.74200
O740        O  0.52662447  0.20969347  0.00339405    -0.74200
O741        O  0.97080247  0.19658836  0.00090180    -0.74200
O742        O  0.97310669  0.28995015  0.49690986    -0.74200
O743        O  0.97201924  0.24358475  0.45492601    -0.74100
O744        O  0.97200895  0.24296186  0.04289162    -0.74200
Ni745      Ni  0.52974425  0.25682915  0.50149106     1.25400
Ni746      Ni  0.96999184  0.24281992  0.99881789     1.25400
C747        C  0.99986536  0.24949129  0.05868872     0.88100
C748        C  0.99987504  0.25015971  0.44161989     0.88000
C749        C  0.50134113  0.31171320  0.49754935     0.88000
C750        C  0.49838879  0.18793171  0.00275568     0.88200
O751        O  0.97311062  0.28995569  0.24692803    -0.74100
O752        O  0.97081922  0.19659546  0.25088373    -0.74100
O753        O  0.97201626  0.24294484  0.29289260    -0.74200
O754        O  0.97202129  0.24360935  0.20492662    -0.74200
O755        O  0.52773212  0.25670898  0.20741744    -0.74200
O756        O  0.52772735  0.25605697  0.29538376    -0.74200
O757        O  0.52664152  0.20970528  0.25338509    -0.74100
O758        O  0.52893279  0.30306699  0.24941943    -0.74200
Ni759      Ni  0.97000245  0.24282446  0.24881860     1.25400
Ni760      Ni  0.52974824  0.25683667  0.25149138     1.25400
C761        C  0.50134447  0.31171990  0.24756624     0.88100
C762        C  0.49840711  0.18794218  0.25273719     0.88000
C763        C  0.49987171  0.24947690  0.30869035     0.88000
C764        C  0.49987616  0.25018130  0.19161982     0.88200
O765        O  0.90934931  0.46839110  0.48672155    -0.80600
O766        O  0.56680646  0.48259337  0.49173612    -0.65300
O767        O  0.97562568  0.47455009  0.00806368    -1.11900
C768        C  0.00400326  0.09104611  0.00653650     1.06300
O769        O  0.59039222  0.03125359  0.01351225    -0.78500
O770        O  0.54167174  0.02997448  0.05322970    -0.66100
Ni771      Ni  0.94281130  0.44415823  0.48326521     1.34900
C772        C  0.51202291  0.02352606  0.06230401     0.85000
O773        O  0.51676771  0.43157820  0.50755060    -0.79000
O774        O  0.97050798  0.41378157  0.47815403    -0.89300
C775        C  0.59215428  0.50465182  0.00122446     0.84600
O776        O  0.95808205  0.46970150  0.44701339    -0.67500
O777        O  0.52924292  0.08587141  0.02207981    -0.86800
C778        C  0.98772411  0.47612130  0.43792716     0.85400
C779        C  0.49573792  0.40860171  0.49371139     1.07000
H780        H  0.52763798  0.03174773  0.47079615     0.38800
O781        O  0.52413295  0.02509707  0.49217132    -1.09400
O782        O  0.98736337  0.02697484  0.04453781    -0.66100
Ni783      Ni  0.97864333  0.02142723  0.00067292     1.26300
O784        O  0.51237966  0.47265210  0.45568888    -0.66300
O785        O  0.98297972  0.06807065  0.99268925    -0.78600
C786        C  0.90760198  0.99500841  0.49898885     0.84800
O787        O  0.93293732  0.01705869  0.00848137    -0.65800
Ni788      Ni  0.55693493  0.05549238  0.01696644     1.27400
Ni789      Ni  0.52110262  0.47821753  0.49955654     1.26100
H790        H  0.97212093  0.46789704  0.02944006     0.39400
O791        O  0.90934106  0.46843123  0.23668272    -0.80600
O792        O  0.56678740  0.48259063  0.24175438    -0.65300
O793        O  0.97560536  0.47456668  0.25805860    -1.11900
C794        C  0.00400029  0.09105322  0.25652639     1.06300
O795        O  0.59039659  0.03129319  0.26345316    -0.78500
O796        O  0.54167166  0.02993965  0.30319273    -0.66100
Ni797      Ni  0.94278542  0.44416392  0.23327231     1.34900
C798        C  0.51203225  0.02352395  0.31228670     0.85000
O799        O  0.51674630  0.43158935  0.25756985    -0.79000
O800        O  0.97046655  0.41376166  0.22820375    -0.89300
C801        C  0.59213990  0.50466612  0.25120193     0.84600
O802        O  0.95806159  0.46964312  0.19699455    -0.67500
O803        O  0.52922087  0.08586270  0.27208992    -0.86800
C804        C  0.98771113  0.47608490  0.18792469     0.85400
C805        C  0.49571519  0.40860165  0.24374413     1.07000
H806        H  0.52761128  0.03175274  0.22077005     0.38800
O807        O  0.52411037  0.02510776  0.24215080    -1.09400
O808        O  0.98737587  0.02701096  0.29453396    -0.66100
Ni809      Ni  0.97863662  0.02144415  0.25066760     1.26300
O810        O  0.51236956  0.47265423  0.20569997    -0.66300
O811        O  0.98297549  0.06808415  0.24267394    -0.78600
C812        C  0.90758848  0.99503288  0.24897706     0.84800
O813        O  0.93293457  0.01707303  0.25849378    -0.65800
Ni814      Ni  0.55692515  0.05550372  0.26694521     1.27400
Ni815      Ni  0.52108239  0.47822876  0.24956136     1.26100
H816        H  0.97210088  0.46792081  0.27943313     0.39400
O817        O  0.80305954  0.02879816  0.50091060    -0.74100
O818        O  0.70994595  0.02683403  0.49703569    -0.74100
O819        O  0.75706442  0.02776872  0.04297268    -0.74200
O820        O  0.75589960  0.02774990  0.45497880    -0.74200
O821        O  0.74267654  0.47192653  0.45710380    -0.74200
O822        O  0.74385131  0.47194752  0.04510154    -0.74200
O823        O  0.69669474  0.47090148  0.99917415    -0.74100
O824        O  0.78980832  0.47286527  0.00305000    -0.74200
Ni825      Ni  0.75695442  0.02978034  0.49889783     1.25400
Ni826      Ni  0.74279880  0.46991727  0.00118230     1.25400
C827        C  0.81160102  0.50110519  0.50245138     0.88100
C828        C  0.68815162  0.49859446  0.99764426     0.88000
C829        C  0.75050122  0.49986066  0.05859080     0.88000
C830        C  0.74924718  0.49983830  0.44148675     0.88200
O831        O  0.74266776  0.47194169  0.20710140    -0.74100
O832        O  0.74384069  0.47196111  0.29509682    -0.74100
O833        O  0.69668176  0.47090764  0.24916668    -0.74200
O834        O  0.78979633  0.47287931  0.25304447    -0.74200
O835        O  0.80304267  0.02881242  0.25090613    -0.74200
O836        O  0.70992643  0.02684092  0.24702656    -0.74200
O837        O  0.75705738  0.02778402  0.29297063    -0.74100
O838        O  0.75588702  0.02776414  0.20497397    -0.74200
Ni839      Ni  0.74278758  0.46992987  0.25117783     1.25400
Ni840      Ni  0.75693719  0.02979345  0.24889307     1.25400
C841        C  0.74923920  0.99985157  0.19148439     0.88100
C842        C  0.75048867  0.99987287  0.30858823     0.87600
C843        C  0.68813569  0.99859842  0.24763298     0.88000
C844        C  0.81158811  0.00112038  0.25244461     0.88200
C845        C  0.75744540  0.03016261  0.38995117    -0.13000
C846        C  0.74939281  0.99984702  0.40747277     0.09100
C847        C  0.74181354  0.46954142  0.39217050    -0.13000
C848        C  0.74228981  0.46955097  0.36012382    -0.13000
C849        C  0.75034514  0.99986624  0.34260270     0.09100
C850        C  0.75792098  0.03017205  0.35790420    -0.13000
H851        H  0.76345879  0.05395779  0.40099187     0.13100
H852        H  0.73551904  0.44573999  0.40495153     0.13100
H853        H  0.73627513  0.44575573  0.34908327     0.13100
H854        H  0.76421363  0.05397344  0.34512286     0.13100
C855        C  0.75797928  0.03016726  0.10790354    -0.13000
C856        C  0.75034649  0.99985773  0.09260397     0.09100
C857        C  0.74223882  0.46954857  0.11012559    -0.13000
C858        C  0.74175673  0.46954659  0.14217108    -0.13000
C859        C  0.74938551  0.99985415  0.15747130     0.09100
C860        C  0.75749973  0.03016547  0.13994949    -0.13000
H861        H  0.76432087  0.05396585  0.09512160     0.13100
H862        H  0.73617783  0.44575135  0.09908585     0.13100
H863        H  0.73541306  0.44574786  0.15495264     0.13100
H864        H  0.76356050  0.05396266  0.15098941     0.13100
C865        C  0.62479999  0.49967886  0.24823642    -0.13000
C866        C  0.65337402  0.49813033  0.24719811    -0.14500
C867        C  0.87492696  0.00003524  0.25189964    -0.13000
C868        C  0.84634996  0.00158688  0.25290152    -0.14500
C869        C  0.65339212  0.49812893  0.99721892    -0.13000
C870        C  0.62481694  0.49967161  0.99826067    -0.14500
C871        C  0.87494127  0.00001272  0.50191366    -0.13000
C872        C  0.84636562  0.00156978  0.50291453    -0.14500
C873        C  0.52637497  0.49549074  0.39492094    -0.13000
C874        C  0.99385807  0.48777773  0.40566248     0.09100
C875        C  0.96743127  0.99224883  0.38552268    -0.13000
C876        C  0.97338415  0.00414297  0.35529127    -0.13000
C877        C  0.50590090  0.01185760  0.34454948     0.09100
C878        C  0.53232814  0.50738450  0.36468880    -0.13000
H879        H  0.54730971  0.49245639  0.40989220     0.13100
H880        H  0.94210354  0.98665912  0.39311323     0.13100
H881        H  0.95244897  0.00717862  0.34032126     0.13100
H882        H  0.55765592  0.51297589  0.35709821     0.13100
C883        C  0.97323781  0.50322208  0.10505262    -0.13000
C884        C  0.50587855  0.01185128  0.09456054     0.09100
C885        C  0.53244569  0.00827395  0.11494145    -0.13000
C886        C  0.52650044  0.99636405  0.14516981    -0.13000
C887        C  0.99385706  0.48773776  0.15566342     0.09100
C888        C  0.96729078  0.49131137  0.13528001    -0.13000
H889        H  0.95219553  0.50552265  0.08988231     0.13100
H890        H  0.55788155  0.01460754  0.10754998     0.13100
H891        H  0.54754356  0.99406724  0.16034059     0.13100
H892        H  0.94185464  0.48498129  0.14267070     0.13100
C893        C  0.50052386  0.37540737  0.24511129    -0.13000
C894        C  0.50192753  0.34660022  0.24622157    -0.14500
C895        C  0.99782083  0.15306262  0.25406868    -0.13000
C896        C  0.99921282  0.12425316  0.25517001    -0.14500
C897        C  0.53012546  0.25772459  0.39250398    -0.13000
C898        C  0.49987467  0.25007615  0.40760379     0.09100
C899        C  0.96962335  0.24216395  0.38986776    -0.13000
C900        C  0.96962224  0.24190410  0.35780655    -0.13000
C901        C  0.49987280  0.24955370  0.34270667     0.09100
C902        C  0.53012438  0.25746449  0.36044266    -0.13000
H903        H  0.55387738  0.26392839  0.40545313     0.13100
H904        H  0.94587255  0.23611328  0.40074938     0.13100
H905        H  0.94587030  0.23570114  0.34485742     0.13100
H906        H  0.55387514  0.26351557  0.34956087     0.13100
C907        C  0.53012164  0.25738377  0.11044686    -0.13000
C908        C  0.49986925  0.24957928  0.09270496     0.09100
C909        C  0.96961959  0.24203922  0.10779949    -0.13000
C910        C  0.96962157  0.24229731  0.13986104    -0.13000
C911        C  0.49987365  0.25010035  0.15760317     0.09100
C912        C  0.53012363  0.25764221  0.14250860    -0.13000
H913        H  0.55387250  0.26334664  0.09957003     0.13100
H914        H  0.94586732  0.23592336  0.09484569     0.13100
H915        H  0.94587065  0.23633350  0.15073768     0.13100
H916        H  0.55387587  0.26375749  0.15546257     0.13100
C917        C  0.50192620  0.34659332  0.49619750    -0.13000
C918        C  0.50052942  0.37540208  0.49508020    -0.14500
C919        C  0.99919805  0.12424118  0.00519068    -0.13000
C920        C  0.99780043  0.15304997  0.00409450    -0.14500
O921        O  0.52772585  0.25605928  0.54538234    -0.74100
O922        O  0.52772301  0.25669183  0.95741755    -0.74100
O923        O  0.52892516  0.30305755  0.99941036    -0.74200
O924        O  0.52663447  0.20969664  0.50339448    -0.74200
O925        O  0.97081244  0.19658813  0.50090195    -0.74200
O926        O  0.97310300  0.28995181  0.99690979    -0.74200
O927        O  0.97201207  0.24358550  0.95492574    -0.74100
O928        O  0.97201511  0.24296069  0.54289155    -0.74200
Ni929      Ni  0.52973741  0.25682659  0.00149064     1.25400
Ni930      Ni  0.96999863  0.24281884  0.49881798     1.25400
C931        C  0.99987126  0.24949172  0.55868896     0.88100
C932        C  0.99986780  0.25015873  0.94161961     0.88000
C933        C  0.50133835  0.31171340  0.99754921     0.88000
C934        C  0.49839974  0.18793342  0.50275601     0.88200
O935        O  0.97311023  0.28995598  0.74692685    -0.74100
O936        O  0.97081606  0.19659510  0.75088299    -0.74100
O937        O  0.97201252  0.24294461  0.79289158    -0.74200
O938        O  0.97202151  0.24360947  0.70492571    -0.74200
O939        O  0.52773229  0.25670755  0.70741856    -0.74200
O940        O  0.52772356  0.25605511  0.79538464    -0.74200
O941        O  0.52663831  0.20970331  0.75338622    -0.74100
O942        O  0.52893239  0.30306568  0.74942042    -0.74200
Ni943      Ni  0.97000069  0.24282448  0.74881755     1.25400
Ni944      Ni  0.52974640  0.25683496  0.75149249     1.25400
C945        C  0.50134453  0.31171951  0.74756612     0.88100
C946        C  0.49840347  0.18794090  0.75273747     0.88000
C947        C  0.49986737  0.24947577  0.80869025     0.88000
C948        C  0.49987698  0.25018072  0.69161995     0.88200
O949        O  0.90935006  0.46839183  0.98672180    -0.80600
O950        O  0.56680722  0.48259486  0.99173658    -0.65300
O951        O  0.97562494  0.47454898  0.50806343    -1.11900
C952        C  0.00401726  0.09104852  0.50653692     1.06300
O953        O  0.59040436  0.03125293  0.51351754    -0.78500
O954        O  0.54168176  0.02997539  0.55323258    -0.66100
Ni955      Ni  0.94281226  0.44415926  0.98326537     1.34900
C956        C  0.51203232  0.02352797  0.56230530     0.85000
O957        O  0.51676860  0.43157942  0.00755090    -0.79000
O958        O  0.97050916  0.41378289  0.97815401    -0.89300
C959        C  0.59215361  0.50465033  0.50122385     0.84600
O960        O  0.95808299  0.46970278  0.94701366    -0.67500
O961        O  0.52925637  0.08587343  0.52208100    -0.86800
C962        C  0.98772507  0.47612258  0.93792748     0.85400
C963        C  0.49573888  0.40860295  0.99371159     1.07000
H964        H  0.52762335  0.03174503  0.97079398     0.38800
O965        O  0.52411950  0.02509495  0.99216956    -1.09400
O966        O  0.98737427  0.02697791  0.54453779    -0.66100
Ni967      Ni  0.97865650  0.02142986  0.50067292     1.26300
O968        O  0.51238061  0.47265336  0.95568923    -0.66300
O969        O  0.98299395  0.06807339  0.49268898    -0.78600
C970        C  0.90758939  0.99500623  0.99898831     0.84800
O971        O  0.93295009  0.01706224  0.50847943    -0.65800
Ni972      Ni  0.55694772  0.05549313  0.51696982     1.27400
Ni973      Ni  0.52110336  0.47821877  0.99955692     1.26100
H974        H  0.97212018  0.46789588  0.52943985     0.39400
O975        O  0.90934211  0.46843075  0.73668292    -0.80600
O976        O  0.56678863  0.48259105  0.74175414    -0.65300
O977        O  0.97560656  0.47456655  0.75805867    -1.11900
C978        C  0.00399483  0.09105133  0.75652696     1.06300
O979        O  0.59039110  0.03129175  0.76345386    -0.78500
O980        O  0.54166479  0.02993615  0.80319311    -0.66100
Ni981      Ni  0.94278666  0.44416366  0.73327249     1.34900
C982        C  0.51202508  0.02352064  0.81228637     0.85000
O983        O  0.51674784  0.43158941  0.75756970    -0.79000
O984        O  0.97046798  0.41376162  0.72820380    -0.89300
C985        C  0.59214106  0.50466652  0.75120189     0.84600
O986        O  0.95806268  0.46964294  0.69699476    -0.67500
O987        O  0.52921448  0.08586011  0.77209160    -0.86800
C988        C  0.98771216  0.47608481  0.68792477     0.85400
C989        C  0.49571676  0.40860168  0.74374399     1.07000
H990        H  0.52760692  0.03175112  0.72077060     0.38800
O991        O  0.52410529  0.02510600  0.74215113    -1.09400
O992        O  0.98736934  0.02700852  0.79453318    -0.66100
Ni993      Ni  0.97863128  0.02144255  0.75066669     1.26300
O994        O  0.51237072  0.47265446  0.70569996    -0.66300
O995        O  0.98297066  0.06808270  0.74267340    -0.78600
C996        C  0.90758325  0.99503202  0.74897413     0.84800
O997        O  0.93292917  0.01707149  0.75849213    -0.65800
Ni998      Ni  0.55691924  0.05550163  0.76694648     1.27400
Ni999      Ni  0.52108362  0.47822885  0.74956134     1.26100
H1000       H  0.97210217  0.46792068  0.77943322     0.39400
O1001       O  0.80304726  0.02879656  0.00090971    -0.74100
O1002       O  0.70993378  0.02683306  0.99703499    -0.74100
O1003       O  0.75707615  0.02776974  0.54297344    -0.74200
O1004       O  0.75588725  0.02774851  0.95497815    -0.74200
O1005       O  0.74267714  0.47192781  0.95710374    -0.74200
O1006       O  0.74385089  0.47194629  0.54510165    -0.74200
O1007       O  0.69669421  0.47090005  0.49917428    -0.74100
O1008       O  0.78980783  0.47286418  0.50305001    -0.74200
Ni1009     Ni  0.75694224  0.02977911  0.99889710     1.25400
Ni1010     Ni  0.74279830  0.46991601  0.50118239     1.25400
C1011       C  0.81160160  0.50110623  0.00245144     0.88100
C1012       C  0.68815097  0.49859296  0.49764424     0.88000
C1013       C  0.75050077  0.49985947  0.55859084     0.88000
C1014       C  0.74924783  0.49983959  0.94148673     0.88200
O1015       O  0.74266867  0.47194132  0.70710165    -0.74100
O1016       O  0.74384167  0.47196163  0.79509709    -0.74100
O1017       O  0.69668273  0.47090789  0.74916690    -0.74200
O1018       O  0.78979722  0.47287909  0.75304476    -0.74200
O1019       O  0.80303767  0.02881144  0.75090661    -0.74200
O1020       O  0.70992133  0.02684003  0.74702567    -0.74200
O1021       O  0.75705137  0.02778296  0.79297049    -0.74100
O1022       O  0.75588316  0.02776346  0.70497390    -0.74200
Ni1023     Ni  0.74278851  0.46992990  0.75117812     1.25400
Ni1024     Ni  0.75693216  0.02979253  0.74889294     1.25400
C1025       C  0.74923640  0.99985103  0.69148421     0.88100
C1026       C  0.75048195  0.99987175  0.80858797     0.87600
C1027       C  0.68813054  0.99859754  0.74763206     0.88000
C1028       C  0.81158309  0.00111939  0.75244477     0.88200
C1029       C  0.75743488  0.03016115  0.88995081    -0.13000
C1030       C  0.74938123  0.99984556  0.90747227     0.09100
C1031       C  0.74181443  0.46954261  0.89217062    -0.13000
C1032       C  0.74229091  0.46955204  0.86012399    -0.13000
C1033       C  0.75033672  0.99986497  0.84260238     0.09100
C1034       C  0.75791200  0.03017068  0.85790397    -0.13000
H1035       H  0.76344807  0.05395632  0.90099154     0.13100
H1036       H  0.73551997  0.44574122  0.90495171     0.13100
H1037       H  0.73627642  0.44575674  0.84908355     0.13100
H1038       H  0.76420548  0.05397215  0.84512279     0.13100
C1039       C  0.75798575  0.03016759  0.60790421    -0.13000
C1040       C  0.75035500  0.99985828  0.59260446     0.09100
C1041       C  0.74223908  0.46954763  0.61012581    -0.13000
C1042       C  0.74175719  0.46954575  0.64217130    -0.13000
C1043       C  0.74938603  0.99985400  0.65747129     0.09100
C1044       C  0.75750225  0.03016545  0.63994989    -0.13000
H1045       H  0.76432861  0.05396635  0.59512257     0.13100
H1046       H  0.73617815  0.44575033  0.59908617     0.13100
H1047       H  0.73541362  0.44574706  0.65495296     0.13100
H1048       H  0.76356159  0.05396254  0.65098995     0.13100
C1049       C  0.62480119  0.49967938  0.74823636    -0.13000
C1050       C  0.65337521  0.49813085  0.74719804    -0.14500
C1051       C  0.87492172  0.00003412  0.75189741    -0.13000
C1052       C  0.84634489  0.00158586  0.75290067    -0.14500
C1053       C  0.65339141  0.49812727  0.49721861    -0.13000
C1054       C  0.62481623  0.49966999  0.49826015    -0.14500
C1055       C  0.87492866  0.00001054  0.00191300    -0.13000
C1056       C  0.84635306  0.00156779  0.00291370    -0.14500
C1057       C  0.52637599  0.49549199  0.89492124    -0.13000
C1058       C  0.99385907  0.48777903  0.90566279     0.09100
C1059       C  0.96742137  0.99224519  0.88552095    -0.13000
C1060       C  0.97337528  0.00413930  0.85528968    -0.13000
C1061       C  0.50589250  0.01185371  0.84454884     0.09100
C1062       C  0.53232918  0.50738547  0.86468905    -0.13000
H1063       H  0.54731075  0.49245771  0.90989256     0.13100
H1064       H  0.94209337  0.98665583  0.89311084     0.13100
H1065       H  0.95244059  0.00717524  0.84031911     0.13100
H1066       H  0.55765697  0.51297671  0.85709847     0.13100
C1067       C  0.97323794  0.50322090  0.60505257    -0.13000
C1068       C  0.50588516  0.01185287  0.59456133     0.09100
C1069       C  0.53245030  0.00827359  0.61494376    -0.13000
C1070       C  0.52650227  0.99636320  0.64517154    -0.13000
C1071       C  0.99385777  0.48773735  0.65566339     0.09100
C1072       C  0.96729126  0.49131061  0.63528011    -0.13000
H1073       H  0.95219553  0.50552114  0.58988234     0.13100
H1074       H  0.55788678  0.01460596  0.60755391     0.13100
H1075       H  0.54754401  0.99406484  0.66034352     0.13100
H1076       H  0.94185522  0.48498058  0.64267102     0.13100
C1077       C  0.50052541  0.37540738  0.74511103    -0.13000
C1078       C  0.50192859  0.34660007  0.74622132    -0.14500
C1079       C  0.99781620  0.15306106  0.75406922    -0.13000
C1080       C  0.99920768  0.12425143  0.75517062    -0.14500
C1081       C  0.53011885  0.25772184  0.89250430    -0.13000
C1082       C  0.49986775  0.25007494  0.90760351     0.09100
C1083       C  0.96961674  0.24216405  0.88986691    -0.13000
C1084       C  0.96961638  0.24190420  0.85780568    -0.13000
C1085       C  0.49986737  0.24955243  0.84270651     0.09100
C1086       C  0.53011854  0.25746177  0.86044310    -0.13000
H1087       H  0.55387058  0.26392453  0.90545386     0.13100
H1088       H  0.94586568  0.23611445  0.90074805     0.13100
H1089       H  0.94586473  0.23570234  0.84485599     0.13100
H1090       H  0.55386963  0.26351176  0.84956192     0.13100
C1091       C  0.53012590  0.25738447  0.61044802    -0.13000
C1092       C  0.49987414  0.24957938  0.59270522     0.09100
C1093       C  0.96962385  0.24203855  0.60779879    -0.13000
C1094       C  0.96962452  0.24229652  0.63986025    -0.13000
C1095       C  0.49987591  0.25010001  0.65760334     0.09100
C1096       C  0.53012657  0.25764265  0.64250975    -0.13000
H1097       H  0.55387720  0.26334799  0.59957194     0.13100
H1098       H  0.94587202  0.23592227  0.59484428     0.13100
H1099       H  0.94587310  0.23633220  0.65073608     0.13100
H1100       H  0.55387831  0.26375843  0.65546450     0.13100
C1101       C  0.50192566  0.34659406  0.99619764    -0.13000
C1102       C  0.50053009  0.37540318  0.99508056    -0.14500
C1103       C  0.99921215  0.12424364  0.50519115    -0.13000
C1104       C  0.99781358  0.15305215  0.50409499    -0.14500
O1105       O  0.52772028  0.75605916  0.04538183    -0.74100
O1106       O  0.52773020  0.75669365  0.45741816    -0.74100
O1107       O  0.52893002  0.80305875  0.49941110    -0.74200
O1108       O  0.52662909  0.70969687  0.00339389    -0.74200
O1109       O  0.97080702  0.69658711  0.00090207    -0.74200
O1110       O  0.97310783  0.78995117  0.49691008    -0.74200
O1111       O  0.97201923  0.74358575  0.45492601    -0.74100
O1112       O  0.97200949  0.74295926  0.04289209    -0.74200
Ni1113     Ni  0.52974389  0.75682821  0.50149138     1.25400
Ni1114     Ni  0.96999217  0.74281749  0.99881837     1.25400
C1115       C  0.99986600  0.74949093  0.05868897     0.88100
C1116       C  0.99987508  0.75015985  0.44162006     0.88000
C1117       C  0.50134265  0.81171354  0.49754973     0.88000
C1118       C  0.49839470  0.68793311  0.00275568     0.88200
O1119       O  0.97311205  0.78995625  0.24692834    -0.74100
O1120       O  0.97081978  0.69659589  0.25088389    -0.74100
O1121       O  0.97201712  0.74294522  0.29289280    -0.74200
O1122       O  0.97202231  0.74360991  0.20492686    -0.74200
O1123       O  0.52773315  0.75670906  0.20741769    -0.74200
O1124       O  0.52772824  0.75605676  0.29538410    -0.74200
O1125       O  0.52664206  0.70970513  0.25338523    -0.74100
O1126       O  0.52893418  0.80306699  0.24942003    -0.74200
Ni1127     Ni  0.97000344  0.74282496  0.24881882     1.25400
Ni1128     Ni  0.52974920  0.75683658  0.25149170     1.25400
C1129       C  0.50134601  0.81172020  0.24756684     0.88100
C1130       C  0.49840749  0.68794229  0.25273725     0.88000
C1131       C  0.49987255  0.74947696  0.30869061     0.88000
C1132       C  0.49987720  0.75018159  0.19162006     0.88200
O1133       O  0.90935204  0.96839089  0.48672389    -0.80600
O1134       O  0.56680924  0.98259418  0.49173715    -0.65300
O1135       O  0.97561514  0.97454739  0.00806393    -1.11900
C1136       C  0.00401407  0.59104881  0.00653612     1.06300
O1137       O  0.59040233  0.53125502  0.01351457    -0.78500
O1138       O  0.54168060  0.52997657  0.05323065    -0.66100
Ni1139     Ni  0.94281437  0.94415873  0.48326677     1.34900
C1140       C  0.51203141  0.52352864  0.06230405     0.85000
O1141       O  0.51677076  0.93157886  0.50755161    -0.79000
O1142       O  0.97051136  0.91378260  0.47815474    -0.89300
C1143       C  0.59214389  0.00464960  0.00122345     0.84600
O1144       O  0.95808461  0.96970254  0.44701507    -0.67500
O1145       O  0.52925353  0.58587406  0.02207978    -0.86800
C1146       C  0.98772662  0.97612253  0.43792861     0.85400
C1147       C  0.49574108  0.90860251  0.49371221     1.07000
H1148       H  0.52763406  0.53174690  0.47079413     0.38800
O1149       O  0.52412971  0.52509644  0.49216951    -1.09400
O1150       O  0.98737271  0.52697796  0.04453710    -0.66100
Ni1151     Ni  0.97865398  0.52143004  0.00067225     1.26300
O1152       O  0.51238233  0.97265333  0.45569010    -0.66300
O1153       O  0.98299076  0.56807345  0.99268849    -0.78600
C1154       C  0.90759923  0.49500787  0.49898789     0.84800
O1155       O  0.93294780  0.51706190  0.00847963    -0.65800
Ni1156     Ni  0.55694526  0.55549441  0.01696764     1.27400
Ni1157     Ni  0.52110556  0.97821821  0.49955787     1.26100
H1158       H  0.97211038  0.96789422  0.02944025     0.39400
O1159       O  0.90934141  0.96842979  0.23668642    -0.80600
O1160       O  0.56678810  0.98259140  0.24175391    -0.65300
O1161       O  0.97560644  0.97456673  0.25806038    -1.11900
C1162       C  0.00399971  0.59105309  0.25652575     1.06300
O1163       O  0.59039591  0.53129337  0.26345204    -0.78500
O1164       O  0.54167064  0.52993879  0.30319172    -0.66100
Ni1165     Ni  0.94278594  0.94416301  0.23327534     1.34900
C1166       C  0.51203113  0.52352302  0.31228549     0.85000
O1167       O  0.51674795  0.93158981  0.25757055    -0.79000
O1168       O  0.97046720  0.91376116  0.22820603    -0.89300
C1169       C  0.59214061  0.00466639  0.25120225     0.84600
O1170       O  0.95806047  0.96964169  0.19699698    -0.67500
O1171       O  0.52921992  0.58586224  0.27208967    -0.86800
C1172       C  0.98770964  0.97608408  0.18792616     0.85400
C1173       C  0.49571664  0.90860177  0.24374549     1.07000
H1174       H  0.52761107  0.53175246  0.22076936     0.38800
O1175       O  0.52410986  0.52510756  0.24214993    -1.09400
O1176       O  0.98737492  0.52701038  0.29453266    -0.66100
Ni1177     Ni  0.97863602  0.52144416  0.25066624     1.26300
O1178       O  0.51236907  0.97265451  0.20570070    -0.66300
O1179       O  0.98297517  0.56808425  0.24267279    -0.78600
C1180       C  0.90758800  0.49503366  0.24897456     0.84800
O1181       O  0.93293403  0.51707316  0.25849233    -0.65800
Ni1182     Ni  0.55692434  0.55550352  0.26694455     1.27400
Ni1183     Ni  0.52108330  0.97822911  0.24956202     1.26100
H1184       H  0.97210273  0.96792125  0.27943504     0.39400
O1185       O  0.80305700  0.52879791  0.50090986    -0.74100
O1186       O  0.70994343  0.52683391  0.49703503    -0.74100
O1187       O  0.75707455  0.52777094  0.04297280    -0.74200
O1188       O  0.75589707  0.52774968  0.45497821    -0.74200
O1189       O  0.74267920  0.97192675  0.45710430    -0.74200
O1190       O  0.74384110  0.97194530  0.04510167    -0.74200
O1191       O  0.69668431  0.97089919  0.99917438    -0.74100
O1192       O  0.78979779  0.97286284  0.00305005    -0.74200
Ni1193     Ni  0.75695193  0.52978019  0.49889719     1.25400
Ni1194     Ni  0.74278832  0.96991494  0.00118243     1.25400
C1195       C  0.81160360  0.00110547  0.50245219     0.88100
C1196       C  0.68814120  0.99859217  0.99764424     0.88000
C1197       C  0.75049152  0.99985853  0.05859082     0.88000
C1198       C  0.74924974  0.99983853  0.44148729     0.88200
O1199       O  0.74266747  0.97194083  0.20710215    -0.74100
O1200       O  0.74384141  0.97196089  0.29509753    -0.74100
O1201       O  0.69668211  0.97090721  0.24916769    -0.74200
O1202       O  0.78979658  0.97287867  0.25304499    -0.74200
O1203       O  0.80304226  0.52881307  0.25090595    -0.74200
O1204       O  0.70992588  0.52684134  0.24702584    -0.74200
O1205       O  0.75705643  0.52778423  0.29297025    -0.74100
O1206       O  0.75588724  0.52776501  0.20497361    -0.74200
Ni1207     Ni  0.74278786  0.96992934  0.25117859     1.25400
Ni1208     Ni  0.75693673  0.52979399  0.24889269     1.25400
C1209       C  0.74924013  0.49985258  0.19148387     0.88100
C1210       C  0.75048757  0.49987299  0.30858769     0.87600
C1211       C  0.68813519  0.49859878  0.24763212     0.88000
C1212       C  0.81158778  0.50112107  0.25244412     0.88200
C1213       C  0.75744352  0.53016233  0.38995070    -0.13000
C1214       C  0.74939042  0.49984675  0.40747223     0.09100
C1215       C  0.74181607  0.96954165  0.39217113    -0.13000
C1216       C  0.74229202  0.96955112  0.36012447    -0.13000
C1217       C  0.75034346  0.49986616  0.34260216     0.09100
C1218       C  0.75791945  0.53017191  0.35790377    -0.13000
H1219       H  0.76345713  0.55395751  0.40099147     0.13100
H1220       H  0.73552184  0.94574023  0.40495223     0.13100
H1221       H  0.73627742  0.94575583  0.34908400     0.13100
H1222       H  0.76421255  0.55397337  0.34512256     0.13100
C1223       C  0.75798605  0.53016902  0.10790357    -0.13000
C1224       C  0.75035446  0.49985960  0.09260386     0.09100
C1225       C  0.74223208  0.96954689  0.11012602    -0.13000
C1226       C  0.74175234  0.96954508  0.14217165    -0.13000
C1227       C  0.74938855  0.49985552  0.15747088     0.09100
C1228       C  0.75750412  0.53016695  0.13994937    -0.13000
H1229       H  0.76432847  0.55396773  0.09512183     0.13100
H1230       H  0.73617033  0.94574954  0.09908637     0.13100
H1231       H  0.73540946  0.94574644  0.15495339     0.13100
H1232       H  0.76356416  0.55396406  0.15098941     0.13100
C1233       C  0.62480064  0.99967893  0.24823687    -0.13000
C1234       C  0.65337460  0.99813014  0.24719881    -0.14500
C1235       C  0.87492650  0.50003593  0.25189759    -0.13000
C1236       C  0.84634961  0.50158764  0.25290034    -0.14500
C1237       C  0.65338169  0.99812658  0.99721845    -0.13000
C1238       C  0.62480647  0.99966924  0.99825974    -0.14500
C1239       C  0.87493859  0.50001229  0.50191273    -0.13000
C1240       C  0.84636299  0.50156945  0.50291361    -0.14500
C1241       C  0.52637705  0.99549218  0.39492207    -0.13000
C1242       C  0.99386024  0.98777912  0.40566390     0.09100
C1243       C  0.96742934  0.49224740  0.38552099    -0.13000
C1244       C  0.97338246  0.50414159  0.35528964    -0.13000
C1245       C  0.50589940  0.51185630  0.34454816     0.09100
C1246       C  0.53232982  0.00738584  0.36468988    -0.13000
H1247       H  0.54731196  0.99245785  0.40989311     0.13100
H1248       H  0.94210147  0.48665762  0.39311133     0.13100
H1249       H  0.95244736  0.50717725  0.34031949     0.13100
H1250       H  0.55765751  0.01297708  0.35709899     0.13100
C1251       C  0.97323153  0.00321893  0.10505423    -0.13000
C1252       C  0.50588540  0.51185367  0.09456029     0.09100
C1253       C  0.53245128  0.50827516  0.11494215    -0.13000
C1254       C  0.52650425  0.49636472  0.14517010    -0.13000
C1255       C  0.99385380  0.98773640  0.15566448     0.09100
C1256       C  0.96728628  0.99130878  0.13528203    -0.13000
H1257       H  0.95218838  0.00551852  0.08988467     0.13100
H1258       H  0.55788754  0.51460811  0.10755169     0.13100
H1259       H  0.54754649  0.49406687  0.16034163     0.13100
H1260       H  0.94185054  0.98497813  0.14267380     0.13100
C1261       C  0.50052584  0.87540772  0.24511244    -0.13000
C1262       C  0.50192944  0.84660056  0.24622249    -0.14500
C1263       C  0.99782080  0.65306264  0.25406845    -0.13000
C1264       C  0.99921244  0.62425310  0.25516952    -0.14500
C1265       C  0.53012583  0.75772388  0.39250440    -0.13000
C1266       C  0.49987493  0.75007624  0.40760399     0.09100
C1267       C  0.96962368  0.74216480  0.38986777    -0.13000
C1268       C  0.96962282  0.74190497  0.35780660    -0.13000
C1269       C  0.49987351  0.74955377  0.34270693     0.09100
C1270       C  0.53012499  0.75746381  0.36044308    -0.13000
H1271       H  0.55387768  0.76392708  0.40545370     0.13100
H1272       H  0.94587277  0.73611472  0.40074919     0.13100
H1273       H  0.94587092  0.73570263  0.34485729     0.13100
H1274       H  0.55387582  0.76351431  0.34956148     0.13100
C1275       C  0.53012247  0.75738459  0.11044696    -0.13000
C1276       C  0.49987003  0.74957880  0.09270523     0.09100
C1277       C  0.96962044  0.74203771  0.10779989    -0.13000
C1278       C  0.96962249  0.74229611  0.13986140    -0.13000
C1279       C  0.49987462  0.75010044  0.15760340     0.09100
C1280       C  0.53012456  0.75764328  0.14250870    -0.13000
H1281       H  0.55387327  0.76334834  0.09957001     0.13100
H1282       H  0.94586812  0.73592090  0.09484617     0.13100
H1283       H  0.94587158  0.73633145  0.15073813     0.13100
H1284       H  0.55387682  0.76375958  0.15546256     0.13100
C1285       C  0.50192873  0.84659391  0.49619810    -0.13000
C1286       C  0.50053248  0.87540282  0.49508092    -0.14500
C1287       C  0.99920845  0.62424372  0.00519052    -0.13000
C1288       C  0.99780931  0.65305205  0.00409445    -0.14500
O1289       O  0.52772520  0.75605819  0.54538263    -0.74100
O1290       O  0.52772316  0.75669446  0.95741753    -0.74100
O1291       O  0.52892137  0.80305896  0.99941054    -0.74200
O1292       O  0.52663260  0.70969543  0.50339466    -0.74200
O1293       O  0.97081058  0.69658847  0.50090171    -0.74200
O1294       O  0.97309913  0.78994857  0.99691045    -0.74200
O1295       O  0.97201215  0.74358357  0.95492619    -0.74100
O1296       O  0.97201445  0.74296106  0.54289154    -0.74200
Ni1297     Ni  0.52973782  0.75682916  0.00149063     1.25400
Ni1298     Ni  0.96999829  0.74281959  0.49881796     1.25400
C1299       C  0.99987049  0.74949131  0.55868910     0.88100
C1300       C  0.99986785  0.75015909  0.94161982     0.88000
C1301       C  0.50133317  0.81171216  0.99754967     0.88000
C1302       C  0.49839744  0.68793290  0.50275590     0.88200
O1303       O  0.97310710  0.78995408  0.74692728    -0.74100
O1304       O  0.97081735  0.69659425  0.75088302    -0.74100
O1305       O  0.97201185  0.74294302  0.79289187    -0.74200
O1306       O  0.97202044  0.74360832  0.70492589    -0.74200
O1307       O  0.52773127  0.75670887  0.70741850    -0.74200
O1308       O  0.52772295  0.75605609  0.79538461    -0.74200
O1309       O  0.52663972  0.70970501  0.75338611    -0.74100
O1310       O  0.52892931  0.80306628  0.74942041    -0.74200
Ni1311     Ni  0.96999976  0.74282301  0.74881780     1.25400
Ni1312     Ni  0.52974557  0.75683620  0.75149242     1.25400
C1313       C  0.50134073  0.81171868  0.74756639     0.88100
C1314       C  0.49840559  0.68794151  0.75273732     0.88000
C1315       C  0.49986679  0.74947547  0.80869039     0.88000
C1316       C  0.49987592  0.75018080  0.69162000     0.88200
O1317       O  0.90933977  0.96839016  0.98672084    -0.80600
O1318       O  0.56679669  0.98259191  0.99173700    -0.65300
O1319       O  0.97562792  0.97454980  0.50806478    -1.11900
C1320       C  0.00401381  0.59104774  0.50653610     1.06300
O1321       O  0.59040180  0.53125361  0.51351388    -0.78500
O1322       O  0.54168031  0.52997510  0.55323018    -0.66100
Ni1323     Ni  0.94280159  0.94415678  0.98326554     1.34900
C1324       C  0.51203124  0.52352740  0.56230378     0.85000
O1325       O  0.51675811  0.93157683  0.00755162    -0.79000
O1326       O  0.97049816  0.91377974  0.97815533    -0.89300
C1327       C  0.59215630  0.00465040  0.50122617     0.84600
O1328       O  0.95807284  0.96969942  0.94701349    -0.67500
O1329       O  0.52925329  0.58587282  0.52207962    -0.86800
C1330       C  0.98771503  0.97611902  0.93792759     0.85400
C1331       C  0.49572835  0.90860019  0.99371255     1.07000
H1332       H  0.52763472  0.53174799  0.97079453     0.38800
O1333       O  0.52413028  0.52509761  0.99216988    -1.09400
O1334       O  0.98737244  0.52697677  0.54453700    -0.66100
Ni1335     Ni  0.97865343  0.52142899  0.50067214     1.26300
O1336       O  0.51237029  0.97264997  0.95568967    -0.66300
O1337       O  0.98299034  0.56807250  0.49268850    -0.78600
C1338       C  0.90759981  0.49500865  0.99898796     0.84800
O1339       O  0.93294729  0.51706092  0.50847974    -0.65800
Ni1340     Ni  0.55694487  0.55549308  0.51696723     1.27400
Ni1341     Ni  0.52109283  0.97821609  0.99955720     1.26100
H1342       H  0.97212324  0.96789698  0.52944124     0.39400
O1343       O  0.90933647  0.96842983  0.73668195    -0.80600
O1344       O  0.56678286  0.98258907  0.74175600    -0.65300
O1345       O  0.97560043  0.97456504  0.75805890    -1.11900
C1346       C  0.00400022  0.59105301  0.75652579     1.06300
O1347       O  0.59039692  0.53129359  0.76345222    -0.78500
O1348       O  0.54167166  0.52993926  0.80319188    -0.66100
Ni1349     Ni  0.94278104  0.94416265  0.73327183     1.34900
C1350       C  0.51203213  0.52352339  0.81228559     0.85000
O1351       O  0.51674143  0.93158770  0.75757073    -0.79000
O1352       O  0.97046237  0.91376046  0.72820364    -0.89300
C1353       C  0.59213528  0.00466469  0.75120351     0.84600
O1354       O  0.95805808  0.96964225  0.69699444    -0.67500
O1355       O  0.52922072  0.58586245  0.77208947    -0.86800
C1356       C  0.98770786  0.97608385  0.68792517     0.85400
C1357       C  0.49571064  0.90860020  0.74374449     1.07000
H1358       H  0.52761196  0.53175253  0.72076951     0.38800
O1359       O  0.52411081  0.52510760  0.74215005    -1.09400
O1360       O  0.98737584  0.52701035  0.79453268    -0.66100
Ni1361     Ni  0.97863695  0.52144399  0.75066632     1.26300
O1362       O  0.51236583  0.97265295  0.70570093    -0.66300
O1363       O  0.98297579  0.56808403  0.74267291    -0.78600
C1364       C  0.90758898  0.49503317  0.74897473     0.84800
O1365       O  0.93293496  0.51707275  0.75849244    -0.65800
Ni1366     Ni  0.55692524  0.55550371  0.76694456     1.27400
Ni1367     Ni  0.52107770  0.97822716  0.74956241     1.26100
H1368       H  0.97209541  0.96791894  0.77943339     0.39400
O1369       O  0.80305769  0.52879900  0.00090994    -0.74100
O1370       O  0.70994418  0.52683536  0.99703504    -0.74100
O1371       O  0.75707388  0.52776971  0.54297277    -0.74200
O1372       O  0.75589775  0.52775097  0.95497822    -0.74200
O1373       O  0.74266656  0.97192536  0.95710382    -0.74200
O1374       O  0.74385322  0.97194633  0.54510213    -0.74200
O1375       O  0.69669672  0.97090017  0.49917472    -0.74100
O1376       O  0.78981042  0.97286445  0.50305068    -0.74200
Ni1377     Ni  0.75695264  0.52978146  0.99889722     1.25400
Ni1378     Ni  0.74280084  0.96991619  0.50118288     1.25400
C1379       C  0.81159111  0.00110375  0.00245137     0.88100
C1380       C  0.68815348  0.99859309  0.49764497     0.88000
C1381       C  0.75050271  0.99985943  0.55859142     0.88000
C1382       C  0.74923739  0.99983710  0.94148673     0.88200
O1383       O  0.74266358  0.97194015  0.70710175    -0.74100
O1384       O  0.74383525  0.97195983  0.79509716    -0.74100
O1385       O  0.69667698  0.97090633  0.74916663    -0.74200
O1386       O  0.78979155  0.97287769  0.75304520    -0.74200
O1387       O  0.80304336  0.52881285  0.75090587    -0.74200
O1388       O  0.70992710  0.52684160  0.74702563    -0.74200
O1389       O  0.75705775  0.52778476  0.79297008    -0.74100
O1390       O  0.75588822  0.52776464  0.70497346    -0.74200
Ni1391     Ni  0.74278278  0.96992843  0.75117819     1.25400
Ni1392     Ni  0.75693790  0.52979403  0.74889251     1.25400
C1393       C  0.74924100  0.49985208  0.69148391     0.88100
C1394       C  0.75048874  0.49987367  0.80858775     0.87600
C1395       C  0.68813632  0.49859912  0.74763208     0.88000
C1396       C  0.81158878  0.50112079  0.75244425     0.88200
C1397       C  0.75744417  0.53016355  0.88995061    -0.13000
C1398       C  0.74939110  0.49984800  0.90747222     0.09100
C1399       C  0.74180490  0.96954026  0.89217058    -0.13000
C1400       C  0.74228238  0.96954985  0.86012402    -0.13000
C1401       C  0.75034454  0.49986714  0.84260219     0.09100
C1402       C  0.75792029  0.53017299  0.85790366    -0.13000
H1403       H  0.76345766  0.55395872  0.90099132     0.13100
H1404       H  0.73551001  0.94573880  0.90495159     0.13100
H1405       H  0.73626813  0.94575457  0.84908351     0.13100
H1406       H  0.76421338  0.55397438  0.84512237     0.13100
C1407       C  0.75798607  0.53016801  0.60790350    -0.13000
C1408       C  0.75035436  0.49985854  0.59260392     0.09100
C1409       C  0.74223878  0.96954725  0.61012609    -0.13000
C1410       C  0.74175510  0.96954516  0.64217147    -0.13000
C1411       C  0.74938915  0.49985477  0.65747095     0.09100
C1412       C  0.75750450  0.53016613  0.63994930    -0.13000
H1413       H  0.76432832  0.55396666  0.59512166     0.13100
H1414       H  0.73617846  0.94575003  0.59908634     0.13100
H1415       H  0.73541097  0.94574638  0.65495293     0.13100
H1416       H  0.76356458  0.55396328  0.65098924     0.13100
C1417       C  0.62479546  0.99967780  0.74823750    -0.13000
C1418       C  0.65336943  0.99812925  0.74719851    -0.14500
C1419       C  0.87492746  0.50003542  0.75189777    -0.13000
C1420       C  0.84635059  0.50158723  0.75290051    -0.14500
C1421       C  0.65339398  0.99812744  0.49721995    -0.13000
C1422       C  0.62481887  0.99967015  0.49826213    -0.14500
C1423       C  0.87493912  0.50001299  0.00191278    -0.13000
C1424       C  0.84636357  0.50157033  0.00291366    -0.14500
C1425       C  0.52636671  0.99548779  0.89492192    -0.13000
C1426       C  0.99384958  0.98777518  0.90566292     0.09100
C1427       C  0.96743033  0.49224862  0.88552126    -0.13000
C1428       C  0.97338352  0.50414257  0.85528984    -0.13000
C1429       C  0.50590045  0.51185707  0.84454834     0.09100
C1430       C  0.53232068  0.00738156  0.86468994    -0.13000
H1431       H  0.54730111  0.99245319  0.90989358     0.13100
H1432       H  0.94210248  0.48665891  0.89311155     0.13100
H1433       H  0.95244847  0.50717815  0.84031960     0.13100
H1434       H  0.55764865  0.01297269  0.85709985     0.13100
C1435       C  0.97323723  0.00322198  0.60505292    -0.13000
C1436       C  0.50588550  0.51185261  0.59456006     0.09100
C1437       C  0.53245158  0.50827446  0.61494181    -0.13000
C1438       C  0.52650485  0.49636432  0.64516983    -0.13000
C1439       C  0.99385477  0.98773685  0.65566410     0.09100
C1440       C  0.96728920  0.99131119  0.63528014    -0.13000
H1441       H  0.95219547  0.00552309  0.58988215     0.13100
H1442       H  0.55788782  0.51460757  0.60755122     0.13100
H1443       H  0.54754728  0.49406681  0.66034130     0.13100
H1444       H  0.94185285  0.98498156  0.64267028     0.13100
C1445       C  0.50051936  0.87540595  0.74511149    -0.13000
C1446       C  0.50192323  0.84659885  0.74622173    -0.14500
C1447       C  0.99781991  0.65306211  0.75406864    -0.13000
C1448       C  0.99921238  0.62425281  0.75516972    -0.14500
C1449       C  0.53011867  0.75772445  0.89250427    -0.13000
C1450       C  0.49986762  0.75007534  0.90760371     0.09100
C1451       C  0.96961650  0.74216224  0.88986734    -0.13000
C1452       C  0.96961598  0.74190204  0.85780610    -0.13000
C1453       C  0.49986691  0.74955231  0.84270668     0.09100
C1454       C  0.53011816  0.75746410  0.86044303    -0.13000
H1455       H  0.55387043  0.76392903  0.90545361     0.13100
H1456       H  0.94586552  0.73611109  0.90074870     0.13100
H1457       H  0.94586429  0.73569833  0.84485661     0.13100
H1458       H  0.55386915  0.76351584  0.84956162     0.13100
C1459       C  0.53012497  0.75738453  0.61044815    -0.13000
C1460       C  0.49987329  0.74957903  0.59270531     0.09100
C1461       C  0.96962290  0.74203800  0.60779884    -0.13000
C1462       C  0.96962350  0.74229599  0.63986029    -0.13000
C1463       C  0.49987485  0.75010000  0.65760339     0.09100
C1464       C  0.53012550  0.75764292  0.64250982    -0.13000
H1465       H  0.55387633  0.76334827  0.59957215     0.13100
H1466       H  0.94587109  0.73592144  0.59484430     0.13100
H1467       H  0.94587207  0.73633129  0.65073610     0.13100
H1468       H  0.55387725  0.76375899  0.65546459     0.13100
C1469       C  0.50191750  0.84659209  0.99619814    -0.13000
C1470       C  0.50052024  0.87540069  0.99508122    -0.14500
C1471       C  0.99920855  0.62424280  0.50519060    -0.13000
C1472       C  0.99781034  0.65305141  0.50409463    -0.14500
loop_ 
_geom_bond_atom_site_label_1 
_geom_bond_atom_site_label_2 
_geom_bond_distance 
_geom_bond_site_symmetry_2 
_ccdc_geom_bond_type 
O1         Ni193   1.919       .  S
O1          C747   1.282   1_455  A
O2           Ni9   1.919       .  S
O2          C748   1.282   1_455  A
O3           Ni9   1.917       .  S
O3           C13   1.279       .  A
O4         Ni193   1.916       .  S
O4           C14   1.280   1_455  A
O5          Ni10   1.917   1_554  S
O5          C750   1.279       .  A
O6         Ni194   1.916       .  S
O6          C749   1.280       .  A
O7         Ni194   1.919       .  S
O7           C12   1.282       .  A
O8          Ni10   1.919   1_554  S
O8           C11   1.282       .  A
Ni9         O185   1.919       .  S
Ni9         O188   1.916       .  S
Ni9        Ni930   2.390   1_455  S
Ni10        O190   1.916       .  S
Ni10        O191   1.919       .  S
Ni10       Ni929   2.390   1_556  S
C11         O737   1.282       .  A
C11         C908   1.484       .  S
C12         O738   1.282       .  A
C12         C898   1.484       .  S
C13         O742   1.280   1_455  A
C13         C181   1.434       .  S
C14         O741   1.279       .  A
C14         C920   1.434       .  S
O15         Ni23   1.916       .  S
O15         C761   1.280       .  A
O16         Ni23   1.917       .  S
O16         C762   1.279       .  A
O17         Ni23   1.919       .  S
O17         C763   1.282       .  A
O18         Ni23   1.919       .  S
O18         C764   1.282       .  A
O19         Ni24   1.919       .  S
O19          C28   1.282   1_455  A
O20         Ni24   1.919       .  S
O20          C27   1.282   1_455  A
O21         Ni24   1.916       .  S
O21          C26   1.280   1_455  A
O22         Ni24   1.917       .  S
O22          C25   1.279       .  A
Ni23       Ni760   2.390       .  S
Ni24       Ni759   2.390   1_455  S
C25         O751   1.280   1_455  A
C25         C158   1.434       .  S
C26         O752   1.279       .  A
C26         C895   1.434       .  S
C27         O753   1.282       .  A
C27         C165   1.484       .  S
C28         O754   1.282       .  A
C28         C175   1.484       .  S
O29         Ni35   1.923       .  S
O29         C418   1.269       .  A
O30         Ni53   1.905       .  S
O30         C223   1.266       .  A
O31          H54   0.966       .  S
O31        Ni219   1.921   1_554  S
O31        Ni973   1.908   1_554  S
O31        Ni415   1.920       .  S
C32          O49   1.265   1_554  A
C32         O777   1.270       .  A
C32         C183   1.433       .  S
O33         Ni52   1.923       .  S
O33         C407   1.269       .  A
O34         Ni52   1.900       .  S
O34          C36   1.271       .  A
Ni35         O38   1.934       .  S
Ni35         O40   1.900       .  S
Ni35        O215   1.921       .  S
C36         O782   1.277   1_455  A
C36         C148   1.477       .  S
O37         Ni53   1.904       .  S
O37          C43   1.265   1_455  A
O38         C779   1.270       .  A
C39         O214   1.266   1_554  A
C39         O401   1.269       .  A
C39         C134   1.434   1_554  S
O40          C42   1.271       .  A
O41         Ni52   1.934       .  S
O41         C768   1.270       .  A
C42         O784   1.277       .  A
C42         C138   1.477       .  S
C43         O774   1.270       .  A
C43         C182   1.433   1_655  S
H44          O45   0.966       .  S
O45        Ni421   1.920   1_545  S
O45        Ni967   1.908   1_455  S
O45        Ni236   1.921       .  S
O46         Ni47   1.940       .  S
O46         C772   1.277       .  A
Ni47         O51   1.905       .  S
Ni47         O49   1.904   1_554  S
Ni47        O399   1.920   1_545  S
Ni47        O965   1.908   1_554  S
O48         Ni53   1.941       .  S
O48         C778   1.277   1_455  A
C50         O397   1.269       .  A
C50         O235   1.266   1_565  A
C50         C135   1.434   1_565  S
O51         C234   1.266   1_544  A
Ni52        O229   1.921   1_554  S
Ni53        O951   1.908   1_455  S
Ni53        O413   1.920       .  S
O55         Ni61   1.923       .  S
O55         C444   1.269       .  A
O56         Ni79   1.905       .  S
O56          C65   1.266       .  A
O57          H80   0.966       .  S
O57         Ni61   1.921       .  S
O57        Ni815   1.908       .  S
O57        Ni441   1.920       .  S
C58          O75   1.265       .  A
C58         O803   1.270       .  A
C58         C160   1.433       .  S
O59         Ni78   1.923       .  S
O59         C433   1.269       .  A
O60         Ni78   1.900       .  S
O60          C62   1.271       .  A
Ni61         O64   1.934       .  S
Ni61         O66   1.900       .  S
C62         O808   1.277   1_455  A
C62         C141   1.477       .  S
O63         Ni79   1.904       .  S
O63          C69   1.265   1_455  A
O64         C805   1.270       .  A
C65         O427   1.269       .  A
C65         C129   1.434       .  S
O66          C68   1.271       .  A
O67         Ni78   1.934       .  S
O67         C794   1.270       .  A
C68         O810   1.277       .  A
C68         C151   1.477       .  S
C69         O800   1.270       .  A
C69         C157   1.433   1_655  S
H70          O71   0.966       .  S
O71         Ni78   1.921       .  S
O71        Ni447   1.920   1_545  S
O71        Ni809   1.908   1_455  S
O72         Ni73   1.941       .  S
O72         C798   1.277       .  A
Ni73         O77   1.905       .  S
Ni73         O75   1.904       .  S
Ni73        O425   1.920   1_545  S
Ni73        O807   1.908       .  S
O74         Ni79   1.940       .  S
O74         C804   1.277   1_455  A
C76          O77   1.266   1_565  A
C76         O423   1.269       .  A
C76         C131   1.434   1_565  S
Ni79        O793   1.908   1_455  S
Ni79        O439   1.920       .  S
O81         Ni89   1.917       .  S
O81         C459   1.279       .  A
O82         Ni89   1.917       .  S
O82         C644   1.280   1_545  A
O83        Ni273   1.919   1_554  S
O83         C461   1.282   1_545  A
O84         Ni89   1.919       .  S
O84         C462   1.282   1_545  A
O85        Ni274   1.919       .  S
O85          C94   1.282       .  A
O86         Ni90   1.919       .  S
O86          C93   1.282       .  A
O87         Ni90   1.917   1_556  S
O87          C92   1.279       .  A
O88         Ni90   1.917       .  S
O88         C275   1.280       .  A
Ni89        O267   1.919       .  S
Ni89       Ni642   2.390   1_545  S
Ni90        O269   1.919   1_554  S
Ni90       Ni641   2.390   1_554  S
C91         O449   1.279       .  A
C91         O272   1.280       .  A
C91         C504   1.434       .  S
C92         O634   1.280       .  A
C92         C133   1.434       .  S
C93         O451   1.282       .  A
C93         C488   1.484       .  S
C94         O452   1.282       .  A
C94         C478   1.484       .  S
O95        Ni103   1.919       .  S
O95         C473   1.282       .  A
O96        Ni103   1.919       .  S
O96         C474   1.282       .  A
O97        Ni103   1.917       .  S
O97         C475   1.279       .  A
O98        Ni103   1.917       .  S
O98         C476   1.280       .  A
O99        Ni104   1.917       .  S
O99         C108   1.279       .  A
O100       Ni104   1.917       .  S
O100        C107   1.280   1_545  A
O101       Ni104   1.919       .  S
O101        C106   1.282   1_545  A
O102       Ni104   1.919       .  S
O102        C105   1.282   1_545  A
Ni103      Ni472   2.390       .  S
Ni104      Ni471   2.390   1_545  S
C105        O463   1.282       .  A
C105        C123   1.484       .  S
C106        O464   1.282       .  A
C106        C113   1.484       .  S
C107        O465   1.279       .  A
C107        C498   1.434       .  S
C108        O466   1.280   1_545  A
C108        C132   1.434       .  S
C109        C110   1.406   1_545  A
C109        C114   1.399       .  A
C109        H115   1.083       .  S
C110        C462   1.484       .  S
C110        C479   1.406       .  A
C111        C112   1.399       .  A
C111        C478   1.406       .  A
C111        H116   1.083       .  S
C112        C481   1.406       .  A
C112        H117   1.083       .  S
C113        C114   1.406   1_565  A
C113        C480   1.406       .  A
C114        H118   1.083       .  S
C119        C120   1.406   1_545  A
C119        C124   1.399       .  A
C119        H125   1.083       .  S
C120        C461   1.484       .  S
C120        C489   1.406       .  A
C121        C122   1.399       .  A
C121        C488   1.406       .  A
C121        H126   1.083       .  S
C122        C491   1.406       .  A
C122        H127   1.083       .  S
C123        C124   1.406   1_565  A
C123        C490   1.406       .  A
C124        H128   1.083       .  S
C129        C130   1.205       .  T
C130        C475   1.434       .  S
C131        C132   1.205       .  T
C133        C134   1.205       .  T
C135        C136   1.205       .  T
C136        C459   1.434       .  S
C137        C142   1.395       .  A
C137        C874   1.405   1_455  A
C137        H143   1.083       .  S
C138        C873   1.405       .  A
C138        C507   1.405       .  A
C139        C140   1.395   1_565  A
C139        C506   1.405       .  A
C139        H144   1.083       .  S
C140        C877   1.405       .  A
C140        H145   1.083       .  S
C141        C876   1.405   1_455  A
C141        C510   1.405       .  A
C142        C509   1.405       .  A
C142        H146   1.083       .  S
C147        C152   1.395       .  A
C147       C1252   1.405       .  A
C147        H153   1.083       .  S
C148        C149   1.405       .  A
C148       C1251   1.405   1_455  A
C149        C150   1.395   1_545  A
C149        H154   1.083       .  S
C150       C1255   1.405   1_455  A
C150        H155   1.083       .  S
C151        C152   1.405       .  A
C151       C1254   1.405       .  A
C152        H156   1.083       .  S
C157        C158   1.205       .  T
C159        C762   1.434       .  S
C159        C160   1.205       .  T
C161        C162   1.406   1_455  A
C161        C166   1.399       .  A
C161        H167   1.083       .  S
C162        C748   1.484       .  S
C162        C899   1.406       .  A
C163        C164   1.399       .  A
C163        C898   1.406       .  A
C163        H168   1.083       .  S
C164        C901   1.406       .  A
C164        H169   1.083       .  S
C165        C166   1.406   1_655  A
C165        C900   1.406       .  A
C166        H170   1.083       .  S
C171        C172   1.406   1_455  A
C171        C176   1.399       .  A
C171        H177   1.083       .  S
C172        C747   1.484       .  S
C172        C909   1.406       .  A
C173        C174   1.399       .  A
C173        C908   1.406       .  A
C173        H178   1.083       .  S
C174        C911   1.406       .  A
C174        H179   1.083       .  S
C175        C176   1.406   1_655  A
C175        C910   1.406       .  A
C176        H180   1.083       .  S
C181        C182   1.205       .  T
C183        C184   1.205       .  T
C184        C750   1.434       .  S
O185        C931   1.282   1_455  A
O186       Ni193   1.919   1_556  S
O186        C932   1.282   1_455  A
O187       Ni193   1.917   1_556  S
O187        C197   1.279       .  A
O188        C198   1.280   1_455  A
O189       Ni194   1.917       .  S
O189        C934   1.279       .  A
O190        C933   1.280       .  A
O191        C196   1.282       .  A
O192       Ni194   1.919       .  S
O192        C195   1.282       .  A
Ni193      Ni746   2.390   1_454  S
Ni194      Ni745   2.390       .  S
C195        O921   1.282       .  A
C195       C1092   1.484       .  S
C196        O922   1.282       .  A
C196       C1082   1.484       .  S
C197        O926   1.280   1_455  A
C197        C365   1.434       .  S
C198        O925   1.279       .  A
C198       C1104   1.434       .  S
O199       Ni207   1.916       .  S
O199        C945   1.280       .  A
O200       Ni207   1.917       .  S
O200        C946   1.279       .  A
O201       Ni207   1.919       .  S
O201        C947   1.282       .  A
O202       Ni207   1.919       .  S
O202        C948   1.282       .  A
O203       Ni208   1.919       .  S
O203        C212   1.282   1_455  A
O204       Ni208   1.919       .  S
O204        C211   1.282   1_455  A
O205       Ni208   1.916       .  S
O205        C210   1.280   1_455  A
O206       Ni208   1.917       .  S
O206        C209   1.279       .  A
Ni207      Ni944   2.390       .  S
Ni208      Ni943   2.390   1_455  S
C209        O935   1.280   1_455  A
C209        C342   1.434       .  S
C210        O936   1.279       .  A
C210       C1079   1.434       .  S
C211        O937   1.282       .  A
C211        C349   1.484       .  S
C212        O938   1.282       .  A
C212        C359   1.484       .  S
O213       Ni219   1.923       .  S
O213        C602   1.269       .  A
O214       Ni237   1.905       .  S
O215        H238   0.966       .  S
O215       Ni789   1.908       .  S
O215       Ni599   1.920       .  S
C216        O233   1.265       .  A
C216        O961   1.270       .  A
C216        C367   1.433       .  S
O217       Ni236   1.923       .  S
O217        C591   1.269       .  A
O218       Ni236   1.900       .  S
O218        C220   1.271       .  A
Ni219       O222   1.934       .  S
Ni219       O224   1.900       .  S
C220        O966   1.277   1_455  A
C220        C332   1.477       .  S
O221       Ni237   1.904   1_554  S
O221        C227   1.265   1_454  A
O222        C963   1.270       .  A
C223        O585   1.269       .  A
C223        C318   1.434       .  S
O224        C226   1.271       .  A
O225       Ni236   1.934       .  S
O225        C952   1.270       .  A
C226        O968   1.277       .  A
C226        C322   1.477       .  S
C227        O958   1.270       .  A
C227        C366   1.433   1_655  S
H228        O229   0.966       .  S
O229       Ni605   1.920   1_545  S
O229       Ni783   1.908   1_456  S
O230       Ni231   1.940       .  S
O230        C956   1.277       .  A
Ni231       O235   1.905       .  S
Ni231       O233   1.904       .  S
Ni231       O583   1.920   1_545  S
Ni231       O781   1.908       .  S
O232       Ni237   1.941       .  S
O232        C962   1.277   1_455  A
C234        O581   1.269       .  A
C234        C319   1.434   1_566  S
Ni237       O767   1.908   1_456  S
Ni237       O597   1.920       .  S
O239       Ni245   1.923       .  S
O239        C628   1.269       .  A
O240       Ni263   1.905       .  S
O240        C249   1.266       .  A
O241        H264   0.966       .  S
O241       Ni245   1.921       .  S
O241       Ni999   1.908       .  S
O241       Ni625   1.920       .  S
C242        O259   1.265       .  A
C242        O987   1.270       .  A
C242        C344   1.433       .  S
O243       Ni262   1.923       .  S
O243        C617   1.269       .  A
O244       Ni262   1.900       .  S
O244        C246   1.271       .  A
Ni245       O248   1.934       .  S
Ni245       O250   1.900       .  S
C246        O992   1.277   1_455  A
C246        C325   1.477       .  S
O247       Ni263   1.904       .  S
O247        C253   1.265   1_455  A
O248        C989   1.270       .  A
C249        O611   1.269       .  A
C249        C313   1.434       .  S
O250        C252   1.271       .  A
O251       Ni262   1.934       .  S
O251        C978   1.270       .  A
C252        O994   1.277       .  A
C252        C335   1.477       .  S
C253        O984   1.270       .  A
C253        C341   1.433   1_655  S
H254        O255   0.966       .  S
O255       Ni631   1.920   1_545  S
O255       Ni993   1.908   1_455  S
O255       Ni262   1.921       .  S
O256       Ni257   1.941       .  S
O256        C982   1.277       .  A
Ni257       O261   1.905       .  S
Ni257       O259   1.904       .  S
Ni257       O609   1.920   1_545  S
Ni257       O991   1.908       .  S
O258       Ni263   1.940       .  S
O258        C988   1.277   1_455  A
C260        O607   1.269       .  A
C260        O261   1.266   1_565  A
C260        C315   1.434   1_565  S
Ni263       O977   1.908   1_455  S
Ni263       O623   1.920       .  S
O265       Ni273   1.917   1_554  S
O265        C643   1.279       .  A
O266       Ni273   1.917       .  S
O266        C460   1.280   1_545  A
O267        C645   1.282   1_545  A
O268       Ni273   1.919       .  S
O268        C646   1.282   1_545  A
O269        C278   1.282       .  A
O270       Ni274   1.919       .  S
O270        C277   1.282       .  A
O271       Ni274   1.917       .  S
O271        C276   1.279       .  A
O272       Ni274   1.917       .  S
Ni273      Ni458   2.390   1_546  S
Ni274      Ni457   2.390       .  S
C275        O633   1.279       .  A
C275        C688   1.434       .  S
C276        O450   1.280       .  A
C276        C317   1.434       .  S
C277        O635   1.282       .  A
C277        C672   1.484       .  S
C278        O636   1.282       .  A
C278        C662   1.484       .  S
O279       Ni287   1.919       .  S
O279        C657   1.282       .  A
O280       Ni287   1.919       .  S
O280        C658   1.282       .  A
O281       Ni287   1.917       .  S
O281        C659   1.279       .  A
O282       Ni287   1.917       .  S
O282        C660   1.280       .  A
O283       Ni288   1.917       .  S
O283        C292   1.279       .  A
O284       Ni288   1.917       .  S
O284        C291   1.280   1_545  A
O285       Ni288   1.919       .  S
O285        C290   1.282   1_545  A
O286       Ni288   1.919       .  S
O286        C289   1.282   1_545  A
Ni287      Ni656   2.390       .  S
Ni288      Ni655   2.390   1_545  S
C289        O647   1.282       .  A
C289        C307   1.484       .  S
C290        O648   1.282       .  A
C290        C297   1.484       .  S
C291        O649   1.279       .  A
C291        C682   1.434       .  S
C292        O650   1.280   1_545  A
C292        C316   1.434       .  S
C293        C294   1.406   1_545  A
C293        C298   1.399       .  A
C293        H299   1.083       .  S
C294        C646   1.484       .  S
C294        C663   1.406       .  A
C295        C662   1.406       .  A
C295        C296   1.399       .  A
C295        H300   1.083       .  S
C296        C665   1.406       .  A
C296        H301   1.083       .  S
C297        C664   1.406       .  A
C297        C298   1.406   1_565  A
C298        H302   1.083       .  S
C303        C304   1.406   1_545  A
C303        C308   1.399       .  A
C303        H309   1.083       .  S
C304        C645   1.484       .  S
C304        C673   1.406       .  A
C305        C672   1.406       .  A
C305        C306   1.399       .  A
C305        H310   1.083       .  S
C306        C675   1.406       .  A
C306        H311   1.083       .  S
C307        C674   1.406       .  A
C307        C308   1.406   1_565  A
C308        H312   1.083       .  S
C313        C314   1.205       .  T
C314        C659   1.434       .  S
C315        C316   1.205       .  T
C317        C318   1.205       .  T
C319        C320   1.205       .  T
C320        C643   1.434       .  S
C321       C1058   1.405   1_455  A
C321        C326   1.395       .  A
C321        H327   1.083       .  S
C322       C1057   1.405       .  A
C322        C691   1.405       .  A
C323        C690   1.405       .  A
C323        C324   1.395   1_565  A
C323        H328   1.083       .  S
C324       C1061   1.405       .  A
C324        H329   1.083       .  S
C325       C1060   1.405   1_455  A
C325        C694   1.405       .  A
C326        C693   1.405       .  A
C326        H330   1.083       .  S
C331       C1436   1.405       .  A
C331        C336   1.395       .  A
C331        H337   1.083       .  S
C332       C1435   1.405   1_455  A
C332        C333   1.405       .  A
C333        C334   1.395   1_545  A
C333        H338   1.083       .  S
C334       C1439   1.405   1_455  A
C334        H339   1.083       .  S
C335       C1438   1.405       .  A
C335        C336   1.405       .  A
C336        H340   1.083       .  S
C341        C342   1.205       .  T
C343        C946   1.434       .  S
C343        C344   1.205       .  T
C345        C346   1.406   1_455  A
C345        C350   1.399       .  A
C345        H351   1.083       .  S
C346        C932   1.484       .  S
C346       C1083   1.406       .  A
C347       C1082   1.406       .  A
C347        C348   1.399       .  A
C347        H352   1.083       .  S
C348       C1085   1.406       .  A
C348        H353   1.083       .  S
C349       C1084   1.406       .  A
C349        C350   1.406   1_655  A
C350        H354   1.083       .  S
C355        C356   1.406   1_455  A
C355        C360   1.399       .  A
C355        H361   1.083       .  S
C356        C931   1.484       .  S
C356       C1093   1.406       .  A
C357       C1092   1.406       .  A
C357        C358   1.399       .  A
C357        H362   1.083       .  S
C358       C1095   1.406       .  A
C358        H363   1.083       .  S
C359       C1094   1.406       .  A
C359        C360   1.406   1_655  A
C360        H364   1.083       .  S
C365        C366   1.205       .  T
C367        C368   1.205       .  T
C368        C934   1.434       .  S
O369       Ni561   1.919       .  S
O369       C1115   1.282   1_455  A
O370       Ni377   1.919       .  S
O370       C1116   1.282   1_455  A
O371       Ni377   1.917       .  S
O371        C381   1.279       .  A
O372       Ni561   1.916       .  S
O372        C382   1.280   1_455  A
O373       Ni378   1.917   1_554  S
O373       C1118   1.279       .  A
O374       Ni562   1.916       .  S
O374       C1117   1.280       .  A
O375       Ni562   1.919       .  S
O375        C380   1.282       .  A
O376       Ni378   1.919   1_554  S
O376        C379   1.282       .  A
Ni377       O553   1.919       .  S
Ni377       O556   1.916       .  S
Ni377     Ni1298   2.390   1_455  S
Ni378       O558   1.916       .  S
Ni378       O559   1.919       .  S
Ni378     Ni1297   2.390   1_556  S
C379       O1105   1.282       .  A
C379       C1276   1.484       .  S
C380       O1106   1.282       .  A
C380       C1266   1.484       .  S
C381       O1110   1.280   1_455  A
C381        C549   1.434       .  S
C382       O1109   1.279       .  A
C382       C1288   1.434       .  S
O383       Ni391   1.916       .  S
O383       C1129   1.280       .  A
O384       Ni391   1.917       .  S
O384       C1130   1.279       .  A
O385       Ni391   1.919       .  S
O385       C1131   1.282       .  A
O386       Ni391   1.919       .  S
O386       C1132   1.282       .  A
O387       Ni392   1.919       .  S
O387        C396   1.282   1_455  A
O388       Ni392   1.919       .  S
O388        C395   1.282   1_455  A
O389       Ni392   1.916       .  S
O389        C394   1.280   1_455  A
O390       Ni392   1.917       .  S
O390        C393   1.279       .  A
Ni391     Ni1128   2.390       .  S
Ni392     Ni1127   2.390   1_455  S
C393       O1119   1.280   1_455  A
C393        C526   1.434       .  S
C394       O1120   1.279       .  A
C394       C1263   1.434       .  S
C395       O1121   1.282       .  A
C395        C533   1.484       .  S
C396       O1122   1.282       .  A
C396        C543   1.484       .  S
O397       Ni403   1.923       .  S
O398       Ni421   1.905       .  S
O398        C591   1.266   1_565  A
O399        H422   0.966       .  S
O399       Ni587   1.921   1_554  S
O399      Ni1341   1.908   1_554  S
C400        O417   1.265   1_554  A
C400       O1145   1.270       .  A
C400        C551   1.433       .  S
O401       Ni420   1.923       .  S
O402       Ni420   1.900       .  S
O402        C404   1.271       .  A
Ni403       O406   1.934       .  S
Ni403       O408   1.900       .  S
Ni403       O583   1.921       .  S
C404       O1150   1.277   1_455  A
C404        C516   1.477       .  S
O405       Ni421   1.904       .  S
O405        C411   1.265   1_455  A
O406       C1147   1.270       .  A
C407        O582   1.266   1_544  A
C407        C502   1.434   1_544  S
O408        C410   1.271       .  A
O409       Ni420   1.934       .  S
O409       C1136   1.270       .  A
C410       O1152   1.277       .  A
C410        C506   1.477       .  S
C411       O1142   1.270       .  A
C411        C550   1.433   1_655  S
H412        O413   0.966       .  S
O413      Ni1335   1.908   1_455  S
O413       Ni604   1.921       .  S
O414       Ni415   1.940       .  S
O414       C1140   1.277       .  A
Ni415       O419   1.905       .  S
Ni415       O417   1.904   1_554  S
Ni415      O1333   1.908   1_554  S
O416       Ni421   1.941       .  S
O416       C1146   1.277   1_455  A
C418        O603   1.266       .  A
C418        C503   1.434       .  S
O419        C602   1.266   1_554  A
Ni420       O597   1.921   1_554  S
Ni421      O1319   1.908   1_455  S
O423       Ni429   1.923       .  S
O424       Ni447   1.905       .  S
O424        C433   1.266   1_565  A
O425        H448   0.966       .  S
O425       Ni429   1.921       .  S
O425      Ni1183   1.908       .  S
C426        O443   1.265       .  A
C426       O1171   1.270       .  A
C426        C528   1.433       .  S
O427       Ni446   1.923       .  S
O428       Ni446   1.900       .  S
O428        C430   1.271       .  A
Ni429       O432   1.934       .  S
Ni429       O434   1.900       .  S
C430       O1176   1.277   1_455  A
C430        C509   1.477       .  S
O431       Ni447   1.904       .  S
O431        C437   1.265   1_455  A
O432       C1173   1.270       .  A
C433        C497   1.434   1_545  S
O434        C436   1.271       .  A
O435       Ni446   1.934       .  S
O435       C1162   1.270       .  A
C436       O1178   1.277       .  A
C436        C519   1.477       .  S
C437       O1168   1.270       .  A
C437        C525   1.433   1_655  S
H438        O439   0.966       .  S
O439      Ni1177   1.908   1_455  S
O439       Ni446   1.921       .  S
O440       Ni441   1.941       .  S
O440       C1166   1.277       .  A
Ni441       O445   1.905       .  S
Ni441       O443   1.904       .  S
Ni441      O1175   1.908       .  S
O442       Ni447   1.940       .  S
O442       C1172   1.277   1_455  A
C444        O445   1.266       .  A
C444        C499   1.434       .  S
Ni447      O1161   1.908   1_455  S
O449       Ni457   1.917       .  S
O450       Ni457   1.917       .  S
O451       Ni641   1.919   1_554  S
O452       Ni457   1.919       .  S
O453       Ni642   1.919       .  S
O453        C462   1.282       .  A
O454       Ni458   1.919       .  S
O454        C461   1.282       .  A
O455       Ni458   1.917   1_556  S
O455        C460   1.279       .  A
O456       Ni458   1.917       .  S
O456        C643   1.280   1_565  A
Ni457       O635   1.919       .  S
Ni458       O637   1.919   1_554  S
C459        O640   1.280   1_545  A
C460        C501   1.434       .  S
O463       Ni471   1.919       .  S
O464       Ni471   1.919       .  S
O465       Ni471   1.917       .  S
O466       Ni471   1.917       .  S
O467       Ni472   1.917       .  S
O467        C476   1.279       .  A
O468       Ni472   1.917       .  S
O468        C475   1.280       .  A
O469       Ni472   1.919       .  S
O469        C474   1.282       .  A
O470       Ni472   1.919       .  S
O470        C473   1.282       .  A
C473        C491   1.484       .  S
C474        C481   1.484       .  S
C476        C500   1.434       .  S
C477        C478   1.406       .  A
C477        C482   1.399       .  A
C477        H483   1.083       .  S
C479        C480   1.399       .  A
C479        H484   1.083       .  S
C480        H485   1.083       .  S
C481        C482   1.406       .  A
C482        H486   1.083       .  S
C487        C488   1.406       .  A
C487        C492   1.399       .  A
C487        H493   1.083       .  S
C489        C490   1.399       .  A
C489        H494   1.083       .  S
C490        H495   1.083       .  S
C491        C492   1.406       .  A
C492        H496   1.083       .  S
C497        C498   1.205       .  T
C499        C500   1.205       .  T
C501        C502   1.205       .  T
C503        C504   1.205       .  T
C505       C1242   1.405   1_455  A
C505        C510   1.395   1_565  A
C505        H511   1.083       .  S
C506       C1241   1.405       .  A
C507        C508   1.395       .  A
C507        H512   1.083       .  S
C508       C1245   1.405       .  A
C508        H513   1.083       .  S
C509       C1244   1.405   1_455  A
C510        H514   1.083       .  S
C515        C884   1.405       .  A
C515        C520   1.395   1_545  A
C515        H521   1.083       .  S
C516        C883   1.405   1_455  A
C516        C517   1.405       .  A
C517        C518   1.395       .  A
C517        H522   1.083       .  S
C518        C887   1.405   1_455  A
C518        H523   1.083       .  S
C519        C886   1.405       .  A
C519        C520   1.405       .  A
C520        H524   1.083       .  S
C525        C526   1.205       .  T
C527       C1130   1.434       .  S
C527        C528   1.205       .  T
C529        C530   1.406   1_455  A
C529        C534   1.399       .  A
C529        H535   1.083       .  S
C530       C1116   1.484       .  S
C530       C1267   1.406       .  A
C531       C1266   1.406       .  A
C531        C532   1.399       .  A
C531        H536   1.083       .  S
C532       C1269   1.406       .  A
C532        H537   1.083       .  S
C533       C1268   1.406       .  A
C533        C534   1.406   1_655  A
C534        H538   1.083       .  S
C539        C540   1.406   1_455  A
C539        C544   1.399       .  A
C539        H545   1.083       .  S
C540       C1115   1.484       .  S
C540       C1277   1.406       .  A
C541       C1276   1.406       .  A
C541        C542   1.399       .  A
C541        H546   1.083       .  S
C542       C1279   1.406       .  A
C542        H547   1.083       .  S
C543       C1278   1.406       .  A
C543        C544   1.406   1_655  A
C544        H548   1.083       .  S
C549        C550   1.205       .  T
C551        C552   1.205       .  T
C552       C1118   1.434       .  S
O553       C1299   1.282   1_455  A
O554       Ni561   1.919   1_556  S
O554       C1300   1.282   1_455  A
O555       Ni561   1.917   1_556  S
O555        C565   1.279       .  A
O556        C566   1.280   1_455  A
O557       Ni562   1.917       .  S
O557       C1302   1.279       .  A
O558       C1301   1.280       .  A
O559        C564   1.282       .  A
O560       Ni562   1.919       .  S
O560        C563   1.282       .  A
Ni561     Ni1114   2.390   1_454  S
Ni562     Ni1113   2.390       .  S
C563       O1289   1.282       .  A
C563       C1460   1.484       .  S
C564       O1290   1.282       .  A
C564       C1450   1.484       .  S
C565       O1294   1.280   1_455  A
C565        C733   1.434       .  S
C566       O1293   1.279       .  A
C566       C1472   1.434       .  S
O567       Ni575   1.916       .  S
O567       C1313   1.280       .  A
O568       Ni575   1.917       .  S
O568       C1314   1.279       .  A
O569       Ni575   1.919       .  S
O569       C1315   1.282       .  A
O570       Ni575   1.919       .  S
O570       C1316   1.282       .  A
O571       Ni576   1.919       .  S
O571        C580   1.282   1_455  A
O572       Ni576   1.919       .  S
O572        C579   1.282   1_455  A
O573       Ni576   1.916       .  S
O573        C578   1.280   1_455  A
O574       Ni576   1.917       .  S
O574        C577   1.279       .  A
Ni575     Ni1312   2.390       .  S
Ni576     Ni1311   2.390   1_455  S
C577       O1303   1.280   1_455  A
C577        C710   1.434       .  S
C578       O1304   1.279       .  A
C578       C1447   1.434       .  S
C579       O1305   1.282       .  A
C579        C717   1.484       .  S
C580       O1306   1.282       .  A
C580        C727   1.484       .  S
O581       Ni587   1.923       .  S
O582       Ni605   1.905       .  S
O583        H606   0.966       .  S
O583      Ni1157   1.908       .  S
C584        O601   1.265       .  A
C584       O1329   1.270       .  A
C584        C735   1.433       .  S
O585       Ni604   1.923       .  S
O586       Ni604   1.900       .  S
O586        C588   1.271       .  A
Ni587       O590   1.934       .  S
Ni587       O592   1.900       .  S
C588       O1334   1.277   1_455  A
C588        C700   1.477       .  S
O589       Ni605   1.904   1_554  S
O589        C595   1.265   1_454  A
O590       C1331   1.270       .  A
C591        C686   1.434   1_545  S
O592        C594   1.271       .  A
O593       Ni604   1.934       .  S
O593       C1320   1.270       .  A
C594       O1336   1.277       .  A
C594        C690   1.477       .  S
C595       O1326   1.270       .  A
C595        C734   1.433   1_655  S
H596        O597   0.966       .  S
O597      Ni1151   1.908   1_456  S
O598       Ni599   1.940       .  S
O598       C1324   1.277       .  A
Ni599       O603   1.905       .  S
Ni599       O601   1.904       .  S
Ni599      O1149   1.908       .  S
O600       Ni605   1.941       .  S
O600       C1330   1.277   1_455  A
C602        C687   1.434   1_556  S
Ni605      O1135   1.908   1_456  S
O607       Ni613   1.923       .  S
O608       Ni631   1.905       .  S
O608        C617   1.266   1_565  A
O609        H632   0.966       .  S
O609       Ni613   1.921       .  S
O609      Ni1367   1.908       .  S
C610        O627   1.265       .  A
C610       O1355   1.270       .  A
C610        C712   1.433       .  S
O611       Ni630   1.923       .  S
O612       Ni630   1.900       .  S
O612        C614   1.271       .  A
Ni613       O616   1.934       .  S
Ni613       O618   1.900       .  S
C614       O1360   1.277   1_455  A
C614        C693   1.477       .  S
O615       Ni631   1.904       .  S
O615        C621   1.265   1_455  A
O616       C1357   1.270       .  A
C617        C681   1.434   1_545  S
O618        C620   1.271       .  A
O619       Ni630   1.934       .  S
O619       C1346   1.270       .  A
C620       O1362   1.277       .  A
C620        C703   1.477       .  S
C621       O1352   1.270       .  A
C621        C709   1.433   1_655  S
H622        O623   0.966       .  S
O623      Ni1361   1.908   1_455  S
O623       Ni630   1.921       .  S
O624       Ni625   1.941       .  S
O624       C1350   1.277       .  A
Ni625       O629   1.905       .  S
Ni625       O627   1.904       .  S
Ni625      O1359   1.908       .  S
O626       Ni631   1.940       .  S
O626       C1356   1.277   1_455  A
C628        O629   1.266       .  A
C628        C683   1.434       .  S
Ni631      O1345   1.908   1_455  S
O633       Ni641   1.917   1_554  S
O634       Ni641   1.917       .  S
O636       Ni641   1.919       .  S
O637        C646   1.282       .  A
O638       Ni642   1.919       .  S
O638        C645   1.282       .  A
O639       Ni642   1.917       .  S
O639        C644   1.279       .  A
O640       Ni642   1.917       .  S
C644        C685   1.434       .  S
O647       Ni655   1.919       .  S
O648       Ni655   1.919       .  S
O649       Ni655   1.917       .  S
O650       Ni655   1.917       .  S
O651       Ni656   1.917       .  S
O651        C660   1.279       .  A
O652       Ni656   1.917       .  S
O652        C659   1.280       .  A
O653       Ni656   1.919       .  S
O653        C658   1.282       .  A
O654       Ni656   1.919       .  S
O654        C657   1.282       .  A
C657        C675   1.484       .  S
C658        C665   1.484       .  S
C660        C684   1.434       .  S
C661        C662   1.406       .  A
C661        C666   1.399       .  A
C661        H667   1.083       .  S
C663        C664   1.399       .  A
C663        H668   1.083       .  S
C664        H669   1.083       .  S
C665        C666   1.406       .  A
C666        H670   1.083       .  S
C671        C672   1.406       .  A
C671        C676   1.399       .  A
C671        H677   1.083       .  S
C673        C674   1.399       .  A
C673        H678   1.083       .  S
C674        H679   1.083       .  S
C675        C676   1.406       .  A
C676        H680   1.083       .  S
C681        C682   1.205       .  T
C683        C684   1.205       .  T
C685        C686   1.205       .  T
C687        C688   1.205       .  T
C689       C1426   1.405   1_455  A
C689        C694   1.395   1_565  A
C689        H695   1.083       .  S
C690       C1425   1.405       .  A
C691        C692   1.395       .  A
C691        H696   1.083       .  S
C692       C1429   1.405       .  A
C692        H697   1.083       .  S
C693       C1428   1.405   1_455  A
C694        H698   1.083       .  S
C699       C1068   1.405       .  A
C699        C704   1.395   1_545  A
C699        H705   1.083       .  S
C700       C1067   1.405   1_455  A
C700        C701   1.405       .  A
C701        C702   1.395       .  A
C701        H706   1.083       .  S
C702       C1071   1.405   1_455  A
C702        H707   1.083       .  S
C703       C1070   1.405       .  A
C703        C704   1.405       .  A
C704        H708   1.083       .  S
C709        C710   1.205       .  T
C711       C1314   1.434       .  S
C711        C712   1.205       .  T
C713        C714   1.406   1_455  A
C713        C718   1.399       .  A
C713        H719   1.083       .  S
C714       C1300   1.484       .  S
C714       C1451   1.406       .  A
C715       C1450   1.406       .  A
C715        C716   1.399       .  A
C715        H720   1.083       .  S
C716       C1453   1.406       .  A
C716        H721   1.083       .  S
C717       C1452   1.406       .  A
C717        C718   1.406   1_655  A
C718        H722   1.083       .  S
C723        C724   1.406   1_455  A
C723        C728   1.399       .  A
C723        H729   1.083       .  S
C724       C1299   1.484       .  S
C724       C1461   1.406       .  A
C725       C1460   1.406       .  A
C725        C726   1.399       .  A
C725        H730   1.083       .  S
C726       C1463   1.406       .  A
C726        H731   1.083       .  S
C727       C1462   1.406       .  A
C727        C728   1.406   1_655  A
C728        H732   1.083       .  S
C733        C734   1.205       .  T
C735        C736   1.205       .  T
C736       C1302   1.434       .  S
O737       Ni929   1.919       .  S
O738       Ni745   1.919       .  S
O739       Ni745   1.917       .  S
O739        C749   1.279       .  A
O740       Ni929   1.916       .  S
O740        C750   1.280       .  A
O741       Ni746   1.917   1_554  S
O742       Ni930   1.916       .  S
O743       Ni930   1.919       .  S
O743        C748   1.282       .  A
O744       Ni746   1.919   1_554  S
O744        C747   1.282       .  A
Ni745       O921   1.919       .  S
Ni745       O924   1.916       .  S
Ni746       O926   1.916       .  S
Ni746       O927   1.919       .  S
C749        C917   1.434       .  S
O751       Ni759   1.916       .  S
O752       Ni759   1.917       .  S
O753       Ni759   1.919       .  S
O754       Ni759   1.919       .  S
O755       Ni760   1.919       .  S
O755        C764   1.282       .  A
O756       Ni760   1.919       .  S
O756        C763   1.282       .  A
O757       Ni760   1.916       .  S
O757        C762   1.280       .  A
O758       Ni760   1.917       .  S
O758        C761   1.279       .  A
C761        C894   1.434       .  S
C763        C901   1.484       .  S
C764        C911   1.484       .  S
O765       Ni771   1.923       .  S
O765       C1154   1.269       .  A
O766       Ni789   1.905       .  S
O766        C959   1.266       .  A
O767        H790   0.966       .  S
O767       Ni955   1.921   1_554  S
O767      Ni1151   1.920       .  S
C768        O785   1.265   1_454  A
C768        C919   1.433   1_455  S
O769       Ni788   1.923       .  S
O769       C1143   1.269       .  A
O770       Ni788   1.900       .  S
O770        C772   1.271       .  A
Ni771       O774   1.934       .  S
Ni771       O776   1.900       .  S
Ni771       O951   1.921       .  S
C772        C884   1.477       .  S
O773       Ni789   1.904       .  S
O773        C779   1.265       .  A
C775        O950   1.266   1_554  A
C775       O1137   1.269       .  A
C775        C870   1.434   1_554  S
O776        C778   1.271       .  A
O777       Ni788   1.934       .  S
C778        C874   1.477       .  S
C779        C918   1.433       .  S
H780        O781   0.966       .  S
O781      Ni1157   1.920   1_545  S
O781       Ni972   1.921       .  S
O782       Ni783   1.940       .  S
Ni783       O787   1.905       .  S
Ni783       O785   1.904   1_554  S
Ni783      O1135   1.920   1_545  S
O784       Ni789   1.941       .  S
C786       O1133   1.269       .  A
C786        O971   1.266   1_565  A
C786        C871   1.434   1_565  S
O787        C970   1.266   1_544  A
Ni788       O965   1.921   1_554  S
Ni789      O1149   1.920       .  S
O791       Ni797   1.923       .  S
O791       C1180   1.269       .  A
O792       Ni815   1.905       .  S
O792        C801   1.266       .  A
O793        H816   0.966       .  S
O793       Ni797   1.921       .  S
O793      Ni1177   1.920       .  S
C794        O811   1.265   1_455  A
C794        C896   1.433   1_455  S
O795       Ni814   1.923       .  S
O795       C1169   1.269       .  A
O796       Ni814   1.900       .  S
O796        C798   1.271       .  A
Ni797       O800   1.934       .  S
Ni797       O802   1.900       .  S
C798        C877   1.477       .  S
O799       Ni815   1.904       .  S
O799        C805   1.265       .  A
C801       O1163   1.269       .  A
C801        C865   1.434       .  S
O802        C804   1.271       .  A
O803       Ni814   1.934       .  S
C804        C887   1.477       .  S
C805        C893   1.433       .  S
H806        O807   0.966       .  S
O807      Ni1183   1.920   1_545  S
O807       Ni814   1.921       .  S
O808       Ni809   1.941       .  S
Ni809       O813   1.905       .  S
Ni809       O811   1.904       .  S
Ni809      O1161   1.920   1_545  S
O810       Ni815   1.940       .  S
C812       O1159   1.269       .  A
C812        O813   1.266   1_565  A
C812        C867   1.434   1_565  S
Ni815      O1175   1.920       .  S
O817       Ni825   1.917       .  S
O817       C1195   1.279       .  A
O818       Ni825   1.917       .  S
O818       C1380   1.280   1_545  A
O819      Ni1009   1.919   1_554  S
O819       C1197   1.282   1_545  A
O820       Ni825   1.919       .  S
O820       C1198   1.282   1_545  A
O821      Ni1010   1.919       .  S
O821        C830   1.282       .  A
O822       Ni826   1.919       .  S
O822        C829   1.282       .  A
O823       Ni826   1.917   1_556  S
O823        C828   1.279       .  A
O824       Ni826   1.917       .  S
O824       C1011   1.280       .  A
Ni825      O1003   1.919       .  S
Ni825     Ni1378   2.390   1_545  S
Ni826      O1005   1.919   1_554  S
Ni826     Ni1377   2.390   1_554  S
C827       O1185   1.279       .  A
C827       O1008   1.280       .  A
C827       C1240   1.434       .  S
C828       O1370   1.280       .  A
C828        C869   1.434       .  S
C829       O1187   1.282       .  A
C829       C1224   1.484       .  S
C830       O1188   1.282       .  A
C830       C1214   1.484       .  S
O831       Ni839   1.919       .  S
O831       C1209   1.282       .  A
O832       Ni839   1.919       .  S
O832       C1210   1.282       .  A
O833       Ni839   1.917       .  S
O833       C1211   1.279       .  A
O834       Ni839   1.917       .  S
O834       C1212   1.280       .  A
O835       Ni840   1.917       .  S
O835        C844   1.279       .  A
O836       Ni840   1.917       .  S
O836        C843   1.280   1_545  A
O837       Ni840   1.919       .  S
O837        C842   1.282   1_545  A
O838       Ni840   1.919       .  S
O838        C841   1.282   1_545  A
Ni839     Ni1208   2.390       .  S
Ni840     Ni1207   2.390   1_545  S
C841       O1199   1.282       .  A
C841        C859   1.484       .  S
C842       O1200   1.282       .  A
C842        C849   1.484       .  S
C843       O1201   1.279       .  A
C843       C1234   1.434       .  S
C844       O1202   1.280   1_545  A
C844        C868   1.434       .  S
C845        C846   1.406   1_545  A
C845        C850   1.399       .  A
C845        H851   1.083       .  S
C846       C1198   1.484       .  S
C846       C1215   1.406       .  A
C847       C1214   1.406       .  A
C847        C848   1.399       .  A
C847        H852   1.083       .  S
C848       C1217   1.406       .  A
C848        H853   1.083       .  S
C849       C1216   1.406       .  A
C849        C850   1.406   1_565  A
C850        H854   1.083       .  S
C855        C856   1.406   1_545  A
C855        C860   1.399       .  A
C855        H861   1.083       .  S
C856       C1197   1.484       .  S
C856       C1225   1.406       .  A
C857       C1224   1.406       .  A
C857        C858   1.399       .  A
C857        H862   1.083       .  S
C858       C1227   1.406       .  A
C858        H863   1.083       .  S
C859       C1226   1.406       .  A
C859        C860   1.406   1_565  A
C860        H864   1.083       .  S
C865        C866   1.205       .  T
C866       C1211   1.434       .  S
C867        C868   1.205       .  T
C869        C870   1.205       .  T
C871        C872   1.205       .  T
C872       C1195   1.434       .  S
C873        C878   1.395       .  A
C873        H879   1.083       .  S
C874       C1243   1.405       .  A
C875       C1242   1.405       .  A
C875        C876   1.395   1_565  A
C875        H880   1.083       .  S
C876        H881   1.083       .  S
C877       C1246   1.405       .  A
C878       C1245   1.405       .  A
C878        H882   1.083       .  S
C883        C888   1.395       .  A
C883        H889   1.083       .  S
C884        C885   1.405       .  A
C885        C886   1.395   1_545  A
C885        H890   1.083       .  S
C886        H891   1.083       .  S
C887        C888   1.405       .  A
C888        H892   1.083       .  S
C893        C894   1.205       .  T
C895        C896   1.205       .  T
C897        C898   1.406       .  A
C897        C902   1.399       .  A
C897        H903   1.083       .  S
C899        C900   1.399       .  A
C899        H904   1.083       .  S
C900        H905   1.083       .  S
C901        C902   1.406       .  A
C902        H906   1.083       .  S
C907        C908   1.406       .  A
C907        C912   1.399       .  A
C907        H913   1.083       .  S
C909        C910   1.399       .  A
C909        H914   1.083       .  S
C910        H915   1.083       .  S
C911        C912   1.406       .  A
C912        H916   1.083       .  S
C917        C918   1.205       .  T
C919        C920   1.205       .  T
O922       Ni929   1.919   1_556  S
O923       Ni929   1.917   1_556  S
O923        C933   1.279       .  A
O924        C934   1.280       .  A
O925       Ni930   1.917       .  S
O927        C932   1.282       .  A
O928       Ni930   1.919       .  S
O928        C931   1.282       .  A
C933       C1101   1.434       .  S
O935       Ni943   1.916       .  S
O936       Ni943   1.917       .  S
O937       Ni943   1.919       .  S
O938       Ni943   1.919       .  S
O939       Ni944   1.919       .  S
O939        C948   1.282       .  A
O940       Ni944   1.919       .  S
O940        C947   1.282       .  A
O941       Ni944   1.916       .  S
O941        C946   1.280       .  A
O942       Ni944   1.917       .  S
O942        C945   1.279       .  A
C945       C1078   1.434       .  S
C947       C1085   1.484       .  S
C948       C1095   1.484       .  S
O949       Ni955   1.923       .  S
O949       C1338   1.269       .  A
O950       Ni973   1.905       .  S
O951        H974   0.966       .  S
O951      Ni1335   1.920       .  S
C952        O969   1.265   1_455  A
C952       C1103   1.433   1_455  S
O953       Ni972   1.923       .  S
O953       C1327   1.269       .  A
O954       Ni972   1.900       .  S
O954        C956   1.271       .  A
Ni955       O958   1.934       .  S
Ni955       O960   1.900       .  S
C956       C1068   1.477       .  S
O957       Ni973   1.904   1_554  S
O957        C963   1.265   1_554  A
C959       O1321   1.269       .  A
C959       C1054   1.434       .  S
O960        C962   1.271       .  A
O961       Ni972   1.934       .  S
C962       C1058   1.477       .  S
C963       C1102   1.433       .  S
H964        O965   0.966       .  S
O965      Ni1341   1.920   1_545  S
O966       Ni967   1.940       .  S
Ni967       O971   1.905       .  S
Ni967       O969   1.904       .  S
Ni967      O1319   1.920   1_545  S
O968       Ni973   1.941       .  S
C970       O1317   1.269       .  A
C970       C1055   1.434   1_566  S
Ni973      O1333   1.920       .  S
O975       Ni981   1.923       .  S
O975       C1364   1.269       .  A
O976       Ni999   1.905       .  S
O976        C985   1.266       .  A
O977       H1000   0.966       .  S
O977       Ni981   1.921       .  S
O977      Ni1361   1.920       .  S
C978        O995   1.265   1_455  A
C978       C1080   1.433   1_455  S
O979       Ni998   1.923       .  S
O979       C1353   1.269       .  A
O980       Ni998   1.900       .  S
O980        C982   1.271       .  A
Ni981       O984   1.934       .  S
Ni981       O986   1.900       .  S
C982       C1061   1.477       .  S
O983       Ni999   1.904       .  S
O983        C989   1.265       .  A
C985       O1347   1.269       .  A
C985       C1049   1.434       .  S
O986        C988   1.271       .  A
O987       Ni998   1.934       .  S
C988       C1071   1.477       .  S
C989       C1077   1.433       .  S
H990        O991   0.966       .  S
O991      Ni1367   1.920   1_545  S
O991       Ni998   1.921       .  S
O992       Ni993   1.941       .  S
Ni993       O997   1.905       .  S
Ni993       O995   1.904       .  S
Ni993      O1345   1.920   1_545  S
O994       Ni999   1.940       .  S
C996       O1343   1.269       .  A
C996        O997   1.266   1_565  A
C996       C1051   1.434   1_565  S
Ni999      O1359   1.920       .  S
O1001     Ni1009   1.917   1_554  S
O1001      C1379   1.279       .  A
O1002     Ni1009   1.917       .  S
O1002      C1196   1.280   1_545  A
O1003      C1381   1.282   1_545  A
O1004     Ni1009   1.919       .  S
O1004      C1382   1.282   1_545  A
O1005      C1014   1.282       .  A
O1006     Ni1010   1.919       .  S
O1006      C1013   1.282       .  A
O1007     Ni1010   1.917       .  S
O1007      C1012   1.279       .  A
O1008     Ni1010   1.917       .  S
Ni1009    Ni1194   2.390   1_546  S
Ni1010    Ni1193   2.390       .  S
C1011      O1369   1.279       .  A
C1011      C1424   1.434       .  S
C1012      O1186   1.280       .  A
C1012      C1053   1.434       .  S
C1013      O1371   1.282       .  A
C1013      C1408   1.484       .  S
C1014      O1372   1.282       .  A
C1014      C1398   1.484       .  S
O1015     Ni1023   1.919       .  S
O1015      C1393   1.282       .  A
O1016     Ni1023   1.919       .  S
O1016      C1394   1.282       .  A
O1017     Ni1023   1.917       .  S
O1017      C1395   1.279       .  A
O1018     Ni1023   1.917       .  S
O1018      C1396   1.280       .  A
O1019     Ni1024   1.917       .  S
O1019      C1028   1.279       .  A
O1020     Ni1024   1.917       .  S
O1020      C1027   1.280   1_545  A
O1021     Ni1024   1.919       .  S
O1021      C1026   1.282   1_545  A
O1022     Ni1024   1.919       .  S
O1022      C1025   1.282   1_545  A
Ni1023    Ni1392   2.390       .  S
Ni1024    Ni1391   2.390   1_545  S
C1025      O1383   1.282       .  A
C1025      C1043   1.484       .  S
C1026      O1384   1.282       .  A
C1026      C1033   1.484       .  S
C1027      O1385   1.279       .  A
C1027      C1418   1.434       .  S
C1028      O1386   1.280   1_545  A
C1028      C1052   1.434       .  S
C1029      C1030   1.406   1_545  A
C1029      C1034   1.399       .  A
C1029      H1035   1.083       .  S
C1030      C1382   1.484       .  S
C1030      C1399   1.406       .  A
C1031      C1398   1.406       .  A
C1031      C1032   1.399       .  A
C1031      H1036   1.083       .  S
C1032      C1401   1.406       .  A
C1032      H1037   1.083       .  S
C1033      C1400   1.406       .  A
C1033      C1034   1.406   1_565  A
C1034      H1038   1.083       .  S
C1039      C1040   1.406   1_545  A
C1039      C1044   1.399       .  A
C1039      H1045   1.083       .  S
C1040      C1381   1.484       .  S
C1040      C1409   1.406       .  A
C1041      C1408   1.406       .  A
C1041      C1042   1.399       .  A
C1041      H1046   1.083       .  S
C1042      C1411   1.406       .  A
C1042      H1047   1.083       .  S
C1043      C1410   1.406       .  A
C1043      C1044   1.406   1_565  A
C1044      H1048   1.083       .  S
C1049      C1050   1.205       .  T
C1050      C1395   1.434       .  S
C1051      C1052   1.205       .  T
C1053      C1054   1.205       .  T
C1055      C1056   1.205       .  T
C1056      C1379   1.434       .  S
C1057      C1062   1.395       .  A
C1057      H1063   1.083       .  S
C1058      C1427   1.405       .  A
C1059      C1426   1.405       .  A
C1059      C1060   1.395   1_565  A
C1059      H1064   1.083       .  S
C1060      H1065   1.083       .  S
C1061      C1430   1.405       .  A
C1062      C1429   1.405       .  A
C1062      H1066   1.083       .  S
C1067      C1072   1.395       .  A
C1067      H1073   1.083       .  S
C1068      C1069   1.405       .  A
C1069      C1070   1.395   1_545  A
C1069      H1074   1.083       .  S
C1070      H1075   1.083       .  S
C1071      C1072   1.405       .  A
C1072      H1076   1.083       .  S
C1077      C1078   1.205       .  T
C1079      C1080   1.205       .  T
C1081      C1082   1.406       .  A
C1081      C1086   1.399       .  A
C1081      H1087   1.083       .  S
C1083      C1084   1.399       .  A
C1083      H1088   1.083       .  S
C1084      H1089   1.083       .  S
C1085      C1086   1.406       .  A
C1086      H1090   1.083       .  S
C1091      C1092   1.406       .  A
C1091      C1096   1.399       .  A
C1091      H1097   1.083       .  S
C1093      C1094   1.399       .  A
C1093      H1098   1.083       .  S
C1094      H1099   1.083       .  S
C1095      C1096   1.406       .  A
C1096      H1100   1.083       .  S
C1101      C1102   1.205       .  T
C1103      C1104   1.205       .  T
O1105     Ni1297   1.919       .  S
O1106     Ni1113   1.919       .  S
O1107     Ni1113   1.917       .  S
O1107      C1117   1.279       .  A
O1108     Ni1297   1.916       .  S
O1108      C1118   1.280       .  A
O1109     Ni1114   1.917   1_554  S
O1110     Ni1298   1.916       .  S
O1111     Ni1298   1.919       .  S
O1111      C1116   1.282       .  A
O1112     Ni1114   1.919   1_554  S
O1112      C1115   1.282       .  A
Ni1113     O1289   1.919       .  S
Ni1113     O1292   1.916       .  S
Ni1114     O1294   1.916       .  S
Ni1114     O1295   1.919       .  S
C1117      C1285   1.434       .  S
O1119     Ni1127   1.916       .  S
O1120     Ni1127   1.917       .  S
O1121     Ni1127   1.919       .  S
O1122     Ni1127   1.919       .  S
O1123     Ni1128   1.919       .  S
O1123      C1132   1.282       .  A
O1124     Ni1128   1.919       .  S
O1124      C1131   1.282       .  A
O1125     Ni1128   1.916       .  S
O1125      C1130   1.280       .  A
O1126     Ni1128   1.917       .  S
O1126      C1129   1.279       .  A
C1129      C1262   1.434       .  S
C1131      C1269   1.484       .  S
C1132      C1279   1.484       .  S
O1133     Ni1139   1.923       .  S
O1134     Ni1157   1.905       .  S
O1134      C1327   1.266   1_565  A
O1135      H1158   0.966       .  S
O1135     Ni1323   1.921   1_554  S
C1136      O1153   1.265   1_454  A
C1136      C1287   1.433   1_455  S
O1137     Ni1156   1.923       .  S
O1138     Ni1156   1.900       .  S
O1138      C1140   1.271       .  A
Ni1139     O1142   1.934       .  S
Ni1139     O1144   1.900       .  S
Ni1139     O1319   1.921       .  S
C1140      C1252   1.477       .  S
O1141     Ni1157   1.904       .  S
O1141      C1147   1.265       .  A
C1143      O1318   1.266   1_544  A
C1143      C1238   1.434   1_544  S
O1144      C1146   1.271       .  A
O1145     Ni1156   1.934       .  S
C1146      C1242   1.477       .  S
C1147      C1286   1.433       .  S
H1148      O1149   0.966       .  S
O1149     Ni1340   1.921       .  S
O1150     Ni1151   1.940       .  S
Ni1151     O1155   1.905       .  S
Ni1151     O1153   1.904   1_554  S
O1152     Ni1157   1.941       .  S
C1154      O1339   1.266       .  A
C1154      C1239   1.434       .  S
O1155      C1338   1.266   1_554  A
Ni1156     O1333   1.921   1_554  S
O1159     Ni1165   1.923       .  S
O1160     Ni1183   1.905       .  S
O1160      C1169   1.266   1_565  A
O1161      H1184   0.966       .  S
O1161     Ni1165   1.921       .  S
C1162      O1179   1.265   1_455  A
C1162      C1264   1.433   1_455  S
O1163     Ni1182   1.923       .  S
O1164     Ni1182   1.900       .  S
O1164      C1166   1.271       .  A
Ni1165     O1168   1.934       .  S
Ni1165     O1170   1.900       .  S
C1166      C1245   1.477       .  S
O1167     Ni1183   1.904       .  S
O1167      C1173   1.265       .  A
C1169      C1233   1.434   1_545  S
O1170      C1172   1.271       .  A
O1171     Ni1182   1.934       .  S
C1172      C1255   1.477       .  S
C1173      C1261   1.433       .  S
H1174      O1175   0.966       .  S
O1175     Ni1182   1.921       .  S
O1176     Ni1177   1.941       .  S
Ni1177     O1181   1.905       .  S
Ni1177     O1179   1.904       .  S
O1178     Ni1183   1.940       .  S
C1180      O1181   1.266       .  A
C1180      C1235   1.434       .  S
O1185     Ni1193   1.917       .  S
O1186     Ni1193   1.917       .  S
O1187     Ni1377   1.919   1_554  S
O1188     Ni1193   1.919       .  S
O1189     Ni1378   1.919       .  S
O1189      C1198   1.282       .  A
O1190     Ni1194   1.919       .  S
O1190      C1197   1.282       .  A
O1191     Ni1194   1.917   1_556  S
O1191      C1196   1.279       .  A
O1192     Ni1194   1.917       .  S
O1192      C1379   1.280   1_565  A
Ni1193     O1371   1.919       .  S
Ni1194     O1373   1.919   1_554  S
C1195      O1376   1.280   1_545  A
C1196      C1237   1.434       .  S
O1199     Ni1207   1.919       .  S
O1200     Ni1207   1.919       .  S
O1201     Ni1207   1.917       .  S
O1202     Ni1207   1.917       .  S
O1203     Ni1208   1.917       .  S
O1203      C1212   1.279       .  A
O1204     Ni1208   1.917       .  S
O1204      C1211   1.280       .  A
O1205     Ni1208   1.919       .  S
O1205      C1210   1.282       .  A
O1206     Ni1208   1.919       .  S
O1206      C1209   1.282       .  A
C1209      C1227   1.484       .  S
C1210      C1217   1.484       .  S
C1212      C1236   1.434       .  S
C1213      C1214   1.406       .  A
C1213      C1218   1.399       .  A
C1213      H1219   1.083       .  S
C1215      C1216   1.399       .  A
C1215      H1220   1.083       .  S
C1216      H1221   1.083       .  S
C1217      C1218   1.406       .  A
C1218      H1222   1.083       .  S
C1223      C1224   1.406       .  A
C1223      C1228   1.399       .  A
C1223      H1229   1.083       .  S
C1225      C1226   1.399       .  A
C1225      H1230   1.083       .  S
C1226      H1231   1.083       .  S
C1227      C1228   1.406       .  A
C1228      H1232   1.083       .  S
C1233      C1234   1.205       .  T
C1235      C1236   1.205       .  T
C1237      C1238   1.205       .  T
C1239      C1240   1.205       .  T
C1241      C1246   1.395   1_565  A
C1241      H1247   1.083       .  S
C1243      C1244   1.395       .  A
C1243      H1248   1.083       .  S
C1244      H1249   1.083       .  S
C1246      H1250   1.083       .  S
C1251      C1256   1.395   1_545  A
C1251      H1257   1.083       .  S
C1252      C1253   1.405       .  A
C1253      C1254   1.395       .  A
C1253      H1258   1.083       .  S
C1254      H1259   1.083       .  S
C1255      C1256   1.405       .  A
C1256      H1260   1.083       .  S
C1261      C1262   1.205       .  T
C1263      C1264   1.205       .  T
C1265      C1266   1.406       .  A
C1265      C1270   1.399       .  A
C1265      H1271   1.083       .  S
C1267      C1268   1.399       .  A
C1267      H1272   1.083       .  S
C1268      H1273   1.083       .  S
C1269      C1270   1.406       .  A
C1270      H1274   1.083       .  S
C1275      C1276   1.406       .  A
C1275      C1280   1.399       .  A
C1275      H1281   1.083       .  S
C1277      C1278   1.399       .  A
C1277      H1282   1.083       .  S
C1278      H1283   1.083       .  S
C1279      C1280   1.406       .  A
C1280      H1284   1.083       .  S
C1285      C1286   1.205       .  T
C1287      C1288   1.205       .  T
O1290     Ni1297   1.919   1_556  S
O1291     Ni1297   1.917   1_556  S
O1291      C1301   1.279       .  A
O1292      C1302   1.280       .  A
O1293     Ni1298   1.917       .  S
O1295      C1300   1.282       .  A
O1296     Ni1298   1.919       .  S
O1296      C1299   1.282       .  A
C1301      C1469   1.434       .  S
O1303     Ni1311   1.916       .  S
O1304     Ni1311   1.917       .  S
O1305     Ni1311   1.919       .  S
O1306     Ni1311   1.919       .  S
O1307     Ni1312   1.919       .  S
O1307      C1316   1.282       .  A
O1308     Ni1312   1.919       .  S
O1308      C1315   1.282       .  A
O1309     Ni1312   1.916       .  S
O1309      C1314   1.280       .  A
O1310     Ni1312   1.917       .  S
O1310      C1313   1.279       .  A
C1313      C1446   1.434       .  S
C1315      C1453   1.484       .  S
C1316      C1463   1.484       .  S
O1317     Ni1323   1.923       .  S
O1318     Ni1341   1.905       .  S
O1319      H1342   0.966       .  S
C1320      O1337   1.265   1_455  A
C1320      C1471   1.433   1_455  S
O1321     Ni1340   1.923       .  S
O1322     Ni1340   1.900       .  S
O1322      C1324   1.271       .  A
Ni1323     O1326   1.934       .  S
Ni1323     O1328   1.900       .  S
C1324      C1436   1.477       .  S
O1325     Ni1341   1.904   1_554  S
O1325      C1331   1.265   1_554  A
C1327      C1422   1.434   1_545  S
O1328      C1330   1.271       .  A
O1329     Ni1340   1.934       .  S
C1330      C1426   1.477       .  S
C1331      C1470   1.433       .  S
H1332      O1333   0.966       .  S
O1334     Ni1335   1.940       .  S
Ni1335     O1339   1.905       .  S
Ni1335     O1337   1.904       .  S
O1336     Ni1341   1.941       .  S
C1338      C1423   1.434   1_556  S
O1343     Ni1349   1.923       .  S
O1344     Ni1367   1.905       .  S
O1344      C1353   1.266   1_565  A
O1345      H1368   0.966       .  S
O1345     Ni1349   1.921       .  S
C1346      O1363   1.265   1_455  A
C1346      C1448   1.433   1_455  S
O1347     Ni1366   1.923       .  S
O1348     Ni1366   1.900       .  S
O1348      C1350   1.271       .  A
Ni1349     O1352   1.934       .  S
Ni1349     O1354   1.900       .  S
C1350      C1429   1.477       .  S
O1351     Ni1367   1.904       .  S
O1351      C1357   1.265       .  A
C1353      C1417   1.434   1_545  S
O1354      C1356   1.271       .  A
O1355     Ni1366   1.934       .  S
C1356      C1439   1.477       .  S
C1357      C1445   1.433       .  S
H1358      O1359   0.966       .  S
O1359     Ni1366   1.921       .  S
O1360     Ni1361   1.941       .  S
Ni1361     O1365   1.905       .  S
Ni1361     O1363   1.904       .  S
O1362     Ni1367   1.940       .  S
C1364      O1365   1.266       .  A
C1364      C1419   1.434       .  S
O1369     Ni1377   1.917   1_554  S
O1370     Ni1377   1.917       .  S
O1372     Ni1377   1.919       .  S
O1373      C1382   1.282       .  A
O1374     Ni1378   1.919       .  S
O1374      C1381   1.282       .  A
O1375     Ni1378   1.917       .  S
O1375      C1380   1.279       .  A
O1376     Ni1378   1.917       .  S
C1380      C1421   1.434       .  S
O1383     Ni1391   1.919       .  S
O1384     Ni1391   1.919       .  S
O1385     Ni1391   1.917       .  S
O1386     Ni1391   1.917       .  S
O1387     Ni1392   1.917       .  S
O1387      C1396   1.279       .  A
O1388     Ni1392   1.917       .  S
O1388      C1395   1.280       .  A
O1389     Ni1392   1.919       .  S
O1389      C1394   1.282       .  A
O1390     Ni1392   1.919       .  S
O1390      C1393   1.282       .  A
C1393      C1411   1.484       .  S
C1394      C1401   1.484       .  S
C1396      C1420   1.434       .  S
C1397      C1398   1.406       .  A
C1397      C1402   1.399       .  A
C1397      H1403   1.083       .  S
C1399      C1400   1.399       .  A
C1399      H1404   1.083       .  S
C1400      H1405   1.083       .  S
C1401      C1402   1.406       .  A
C1402      H1406   1.083       .  S
C1407      C1408   1.406       .  A
C1407      C1412   1.399       .  A
C1407      H1413   1.083       .  S
C1409      C1410   1.399       .  A
C1409      H1414   1.083       .  S
C1410      H1415   1.083       .  S
C1411      C1412   1.406       .  A
C1412      H1416   1.083       .  S
C1417      C1418   1.205       .  T
C1419      C1420   1.205       .  T
C1421      C1422   1.205       .  T
C1423      C1424   1.205       .  T
C1425      C1430   1.395   1_565  A
C1425      H1431   1.083       .  S
C1427      C1428   1.395       .  A
C1427      H1432   1.083       .  S
C1428      H1433   1.083       .  S
C1430      H1434   1.083       .  S
C1435      C1440   1.395   1_545  A
C1435      H1441   1.083       .  S
C1436      C1437   1.405       .  A
C1437      C1438   1.395       .  A
C1437      H1442   1.083       .  S
C1438      H1443   1.083       .  S
C1439      C1440   1.405       .  A
C1440      H1444   1.083       .  S
C1445      C1446   1.205       .  T
C1447      C1448   1.205       .  T
C1449      C1450   1.406       .  A
C1449      C1454   1.399       .  A
C1449      H1455   1.083       .  S
C1451      C1452   1.399       .  A
C1451      H1456   1.083       .  S
C1452      H1457   1.083       .  S
C1453      C1454   1.406       .  A
C1454      H1458   1.083       .  S
C1459      C1460   1.406       .  A
C1459      C1464   1.399       .  A
C1459      H1465   1.083       .  S
C1461      C1462   1.399       .  A
C1461      H1466   1.083       .  S
C1462      H1467   1.083       .  S
C1463      C1464   1.406       .  A
C1464      H1468   1.083       .  S
C1469      C1470   1.205       .  T
C1471      C1472   1.205       .  T
