geometry optimzed in LAMMPS
_audit_creation_date              2020-11-30 
_audit_creation_method            'lammps2cif' 
_symmetry_space_group_name_H-M    'P1' 
_symmetry_Int_Tables_number       1 
_symmetry_cell_setting            triclinic 
loop_ 
_symmetry_equiv_pos_as_xyz 
  x,y,z 
_cell_length_a                    26.70743156 
_cell_length_b                    43.13609626397753 
_cell_length_c                    27.67259554928168 
_cell_angle_alpha                 88.66270854079072 
_cell_angle_beta                  93.8710792012164 
_cell_angle_gamma                 90.18635495357968 
loop_ 
_atom_site_label 
_atom_site_type_symbol 
_atom_site_fract_x 
_atom_site_fract_y 
_atom_site_fract_z 
_atom_site_charge 
N1          N  0.42783322  0.24781651  0.00012697    -0.36100
N2          N  0.50271250  0.19941125  0.02326854    -0.56700
N3          N  0.58207512  0.24665172  0.02377248    -0.36100
N4          N  0.50605088  0.29489213  0.99567974    -0.56700
C5          C  0.39826878  0.22225482  0.99533926     0.27500
C6          C  0.40009097  0.27270767  0.98383481     0.27500
C7          C  0.61018520  0.22038381  0.02520063     0.27500
C8          C  0.61173930  0.27038552  0.00966724     0.27500
C9          C  0.46055566  0.18217508  0.02787458     0.36100
C10         C  0.54249258  0.18120737  0.03807016     0.36100
C11         C  0.46556160  0.31391824  0.99548783     0.36100
C12         C  0.54760390  0.31295063  0.00171308     0.36100
C13         C  0.35132704  0.23113023  0.97512523    -0.21400
C14         C  0.35247695  0.26279333  0.96799402    -0.21400
C15         C  0.65853882  0.22784926  0.01333150    -0.21400
C16         C  0.65946467  0.25914863  0.00347359    -0.21400
C17         C  0.47385801  0.15274613  0.04542118    -0.22500
C18         C  0.52555614  0.15205839  0.05138288    -0.22400
C19         C  0.48162653  0.34430295  0.00092160    -0.22500
C20         C  0.53347496  0.34373217  0.00414475    -0.22400
C21         C  0.41051806  0.19183626  0.01353591    -0.17800
C22         C  0.41450339  0.30433426  0.98805206    -0.17800
C23         C  0.59805481  0.30215257  0.00357271    -0.17800
C24         C  0.59393451  0.18965792  0.03607813    -0.17800
H25         H  0.31883402  0.21656931  0.96756471     0.15100
H26         H  0.32120563  0.27698276  0.95396359     0.15100
H27         H  0.69004944  0.21233113  0.01134667     0.15100
H28         H  0.69180481  0.27209576  0.99263478     0.15100
H29         H  0.44901409  0.13346811  0.05203896     0.13400
H30         H  0.54816857  0.13228513  0.06378263     0.13400
H31         H  0.45843800  0.36478546  0.00179096     0.13400
H32         H  0.55800030  0.36364149  0.00850465     0.13400
H33         H  0.46213512  0.24886131  0.01989307     0.26700
H34         H  0.54592053  0.24866420  0.03490406     0.26700
N35         N  0.92767836  0.99923944  0.99463824    -0.36100
N36         N  0.00511306  0.45152517  0.99421447    -0.56700
N37         N  0.08105014  0.99730774  0.02765847    -0.36100
N38         N  0.00309975  0.04589026  0.02074292    -0.56700
C39         C  0.90004433  0.47489323  0.97693845     0.27500
C40         C  0.89931910  0.02512888  0.98641949     0.27500
C41         C  0.11125545  0.47468354  0.01011852     0.27500
C42         C  0.10981751  0.02332625  0.03066317     0.27500
C43         C  0.96383815  0.43295432  0.99335538     0.36100
C44         C  0.04605167  0.43287186  0.00030557     0.36100
C45         C  0.96144220  0.06389439  0.02093760     0.36100
C46         C  0.04243906  0.06290811  0.03917323     0.36100
C47         C  0.85356531  0.48520783  0.95783674    -0.21400
C48         C  0.85259375  0.01667566  0.96562665    -0.21400
C49         C  0.15950614  0.48591508  0.00560596    -0.21400
C50         C  0.15868447  0.01589509  0.02107485    -0.21400
C51         C  0.97877453  0.40224361  0.99844794    -0.22500
C52         C  0.03069263  0.40217539  0.00210599    -0.22400
C53         C  0.97475784  0.09267978  0.03919893    -0.22500
C54         C  0.02582715  0.09208860  0.05046364    -0.22400
C55         C  0.91314826  0.44324167  0.98488890    -0.17800
C56         C  0.91191932  0.05533514  0.00304559    -0.17800
C57         C  0.09376267  0.05383734  0.04090183    -0.17800
C58         C  0.09700431  0.44315462  0.00299060    -0.17800
H59         H  0.82233129  0.47128648  0.94380847     0.15100
H60         H  0.82083867  0.03150844  0.95563731     0.15100
H61         H  0.19206181  0.47315205  0.99595952     0.15100
H62         H  0.19077639  0.03125768  0.02069833     0.15100
H63         H  0.95479666  0.38196633  0.99828693     0.13400
H64         H  0.05444109  0.38187274  0.00620361     0.13400
H65         H  0.95049212  0.11239705  0.04293712     0.13400
H66         H  0.04836021  0.11116105  0.06458687     0.13400
H67         H  0.96127705  0.99775555  0.01550977     0.26700
H68         H  0.04412585  0.99540994  0.03689078     0.26700
O69         O  0.14059107  0.08961611  0.99725174    -0.80400
O70         O  0.33941953  0.15958094  0.98785899    -0.65100
O71         O  0.24225128  0.09681400  0.01595875    -1.11700
C72         C  0.19687311  0.16838515  0.13448840     1.06500
O73         O  0.35839248  0.16393095  0.06612586    -0.78300
O74         O  0.30535746  0.13948914  0.13835491    -0.65900
Ni75       Ni  0.20004740  0.07859936  0.96681539     1.34900
C76         C  0.28638120  0.11281175  0.14498702     0.85200
O77         O  0.31928285  0.10212949  0.95163301    -0.78800
O78         O  0.25709827  0.06783185  0.93227882    -0.89100
C79         C  0.36761680  0.17035611  0.02257919     0.84800
O80         O  0.18880282  0.11364057  0.92583464    -0.67300
O81         O  0.23578756  0.18379485  0.12400217    -0.86600
C82         C  0.21133087  0.13903934  0.91959081     0.85600
C83         C  0.30022846  0.07980684  0.92650624     1.07200
H84         H  0.23645118  0.16707788  0.02742508     0.39000
O85         O  0.25630473  0.15135742  0.04511775    -1.09300
O86         O  0.25327980  0.10083340  0.11556059    -0.65900
Ni87       Ni  0.21001035  0.11976750  0.06372787     1.26300
O88         O  0.24953895  0.14758657  0.94596793    -0.66100
O89         O  0.18120840  0.14407788  0.11242625    -0.78400
C90         C  0.13255359  0.07875546  0.03870885     0.85000
O91         O  0.16133978  0.08696483  0.07488782    -0.65600
Ni92       Ni  0.29527689  0.17299487  0.09302936     1.27400
Ni93       Ni  0.28985078  0.12769882  0.99880098     1.26100
H94         H  0.26089241  0.08002151  0.03229589     0.39600
O95         O  0.86212038  0.08389257  0.05377433    -0.80400
O96         O  0.66364186  0.15660118  0.06732739    -0.65100
O97         O  0.75896938  0.09359665  0.03738391    -1.11700
C98         C  0.79046243  0.16491779  0.90941071     1.06500
O99         O  0.63666836  0.15344623  0.99139536    -0.78300
O100        O  0.68159767  0.12845476  0.91929356    -0.65900
Ni101      Ni  0.80231801  0.07369559  0.08566236     1.34900
C102        C  0.70661241  0.10434495  0.91210365     0.85200
O103        O  0.68763452  0.09977450  0.10792535    -0.78800
O104        O  0.74650495  0.06261856  0.12278017    -0.89100
C105        C  0.63196154  0.16450029  0.03266095     0.84800
O106        O  0.81510178  0.10805046  0.12561560    -0.67300
O107        O  0.74697015  0.17555279  0.91626374    -0.86600
C108        C  0.79474756  0.13412041  0.13084040     0.85600
C109        C  0.70617515  0.07642085  0.13221636     1.07200
H110        H  0.75857350  0.16506750  0.01764534     0.39000
O111        O  0.74003002  0.14766293  0.00397897    -1.09300
O112        O  0.74670737  0.09685512  0.93712574    -0.65900
Ni113      Ni  0.78821429  0.11770020  0.98688502     1.26300
O114        O  0.75776585  0.14438760  0.10350607    -0.66100
O115        O  0.81293766  0.14367990  0.93588616    -0.78400
C116        C  0.86920883  0.07681071  0.01067294     0.85000
O117        O  0.83902881  0.08683078  0.97609035    -0.65600
Ni118      Ni  0.69344934  0.16440924  0.95576047     1.27400
Ni119      Ni  0.71241759  0.12443146  0.05577517     1.26100
H120        H  0.73916969  0.07721736  0.02224013     0.39600
O121        O  0.64836522  0.33149566  0.95105167    -0.80400
O122        O  0.84500509  0.41089852  0.95234736    -0.65100
O123        O  0.74979993  0.34585158  0.97367148    -1.11700
C124        C  0.69045323  0.41826026  0.08413696     1.06500
O125        O  0.85632854  0.41483317  0.03170528    -0.78300
O126        O  0.79472684  0.39444349  0.10158870    -0.65900
Ni127      Ni  0.71248550  0.32527867  0.92347246     1.34900
C128        C  0.78073748  0.36640645  0.10603420     0.85200
O129        O  0.83057654  0.35393661  0.91488327    -0.78800
O130        O  0.77301058  0.31752773  0.89172031    -0.89100
C131        C  0.87035842  0.42104845  0.98949309     0.84800
O132        O  0.70078238  0.35982488  0.88028372    -0.67300
O133        O  0.72548974  0.43645090  0.07177906    -0.86600
C134        C  0.72499258  0.38469580  0.87297115     0.85600
C135        C  0.81429740  0.33216272  0.88739138     1.07200
H136        H  0.73699034  0.41563290  0.98178117     0.39000
O137        O  0.75730714  0.40109992  0.00155983    -1.09300
O138        O  0.75716557  0.35175880  0.07198988    -0.65900
Ni139      Ni  0.71362251  0.36835912  0.01862780     1.26300
O140        O  0.75837624  0.39568356  0.90302705    -0.66100
O141        O  0.68082610  0.39199048  0.06514574    -0.78400
C142        C  0.63954714  0.32449060  0.99462375     0.85000
O143        O  0.66807627  0.33456000  0.02957972    -0.65600
Ni144      Ni  0.78991315  0.42507985  0.05046989     1.27400
Ni145      Ni  0.79612018  0.37806895  0.95934487     1.26100
H146        H  0.76887366  0.32984134  0.99146988     0.39600
O147        O  0.35954963  0.33371642  0.03313050    -0.80400
O148        O  0.16889731  0.41131776  0.02854864    -0.65100
O149        O  0.25980517  0.34585612  0.00354327    -1.11700
C150        C  0.30964335  0.41539812  0.88177967     1.06500
O151        O  0.14483364  0.41309313  0.95062032    -0.78300
O152        O  0.19540220  0.38221950  0.88179146    -0.65900
Ni153      Ni  0.29425790  0.32265911  0.05443344     1.34900
C154        C  0.22326770  0.35905718  0.87487559     0.85200
O155        O  0.18490692  0.35431120  0.06849869    -0.78800
O156        O  0.23108074  0.31064672  0.07932365    -0.89100
C157        C  0.13832352  0.42078224  0.99398822     0.84800
O158        O  0.29969195  0.35378276  0.10224957    -0.67300
O159        O  0.26563577  0.42679154  0.88325289    -0.86600
C160        C  0.28488566  0.38160279  0.10441921     0.85600
C161        C  0.19517720  0.32832570  0.08983906     1.07200
H162        H  0.26653667  0.41790626  0.98597289     0.39000
O163        O  0.24836326  0.40081669  0.97056714    -1.09300
O164        O  0.26031201  0.35081934  0.90377459    -0.65900
Ni165      Ni  0.29677907  0.36975887  0.95864759     1.26300
O166        O  0.26000278  0.39568838  0.06954590    -0.66100
O167        O  0.32903289  0.39517623  0.91209310    -0.78400
C168        C  0.37279611  0.32726745  0.99128073     0.85000
O169        O  0.34758446  0.33794723  0.95365234    -0.65600
Ni170      Ni  0.20731596  0.41880896  0.91880953     1.27400
Ni171      Ni  0.21528413  0.37806784  0.01899608     1.26100
H172        H  0.24000457  0.33108329  0.98542974     0.39600
N173        N  0.99276888  0.21192480  0.45297689    -0.36100
N174        N  0.91447652  0.21916213  0.51981642    -0.56700
N175        N  0.99894981  0.21689349  0.59110155    -0.36100
N176        N  0.07686737  0.21238671  0.52476865    -0.56700
C177        C  0.95144309  0.21889927  0.42385568     0.27500
C178        C  0.03279897  0.21498055  0.42577826     0.27500
C179        C  0.96011196  0.22643436  0.61563019     0.27500
C180        C  0.04131544  0.22310922  0.61847748     0.27500
C181        C  0.88619471  0.20897474  0.48121046     0.36100
C182        C  0.89022361  0.21106633  0.55941832     0.36100
C183        C  0.10013504  0.20056311  0.48762482     0.36100
C184        C  0.10321247  0.20300418  0.56580289     0.36100
C185        C  0.96569569  0.22739410  0.37816019    -0.21400
C186        C  0.01692082  0.22509711  0.37942620    -0.21400
C187        C  0.97794470  0.24022415  0.65815323    -0.21400
C188        C  0.02933799  0.23792582  0.66014287    -0.21400
C189        C  0.84208295  0.19592470  0.49596444    -0.22500
C190        C  0.84474588  0.19715235  0.54595305    -0.22400
C191        C  0.14328021  0.18500334  0.50482267    -0.22500
C192        C  0.14503968  0.18636238  0.55477292    -0.22400
C193        C  0.90213431  0.21000852  0.43371893    -0.17800
C194        C  0.08113813  0.20307116  0.43896783    -0.17800
C195        C  0.08757697  0.20855919  0.61239558    -0.17800
C196        C  0.91093350  0.21516141  0.60695891    -0.17800
H197        H  0.94151154  0.23206036  0.34603307     0.15100
H198        H  0.03940533  0.22818273  0.34863532     0.15100
H199        H  0.95595686  0.24833180  0.68678752     0.15100
H200        H  0.05457761  0.24387124  0.69077190     0.15100
H201        H  0.81211305  0.18568817  0.47332594     0.13400
H202        H  0.81724113  0.18807453  0.56956405     0.13400
H203        H  0.16955715  0.17301938  0.48375763     0.13400
H204        H  0.17299762  0.17571467  0.57994517     0.13400
H205        H  0.99267108  0.19950826  0.48556889     0.26700
H206        H  0.99617361  0.20069073  0.56380541     0.26700
N207        N  0.01333808  0.30069456  0.56407773    -0.36100
N208        N  0.08071823  0.29778451  0.48734768    -0.56700
N209        N  0.99366085  0.29659820  0.41639732    -0.36100
N210        N  0.92670159  0.30207223  0.49257761    -0.56700
C211        C  0.05794531  0.30522094  0.58936791     0.27500
C212        C  0.97694478  0.31104357  0.59145174     0.27500
C213        C  0.03110120  0.30312020  0.38718924     0.27500
C214        C  0.94983964  0.30277078  0.39040442     0.27500
C215        C  0.11483678  0.29268654  0.52517214     0.36100
C216        C  0.10437438  0.29288803  0.44651374     0.36100
C217        C  0.90264216  0.30093359  0.53393224     0.36100
C218        C  0.89210621  0.29581548  0.45610526     0.36100
C219        C  0.04968268  0.31778978  0.63374110    -0.21400
C220        C  0.99894921  0.32127958  0.63522207    -0.21400
C221        C  0.01059324  0.31307340  0.34199095    -0.21400
C222        C  0.95962505  0.31310389  0.34417941    -0.21400
C223        C  0.16045020  0.28445572  0.50828669    -0.22500
C224        C  0.15385501  0.28465965  0.45840621    -0.22400
C225        C  0.85244505  0.29371338  0.52372804    -0.22500
C226        C  0.84582919  0.29035367  0.47432859    -0.22400
C227        C  0.10601750  0.29773551  0.57426921    -0.17800
C228        C  0.92436487  0.30943066  0.57972265    -0.17800
C229        C  0.90113530  0.29815176  0.40649347    -0.17800
C230        C  0.08307146  0.29852957  0.39888798    -0.17800
H231        H  0.07720778  0.32391575  0.66242013     0.15100
H232        H  0.98100613  0.32986785  0.66602773     0.15100
H233        H  0.02989016  0.31940501  0.31011212     0.15100
H234        H  0.93300421  0.31998402  0.31472987     0.15100
H235        H  0.19501360  0.27937840  0.52964194     0.13400
H236        H  0.18235595  0.27974524  0.43367506     0.13400
H237        H  0.82344962  0.29160956  0.54909758     0.13400
H238        H  0.81083255  0.28525280  0.45402626     0.13400
H239        H  0.00775199  0.28837854  0.53237415     0.26700
H240        H  0.99764232  0.28534663  0.45003224     0.26700
N241        N  0.49829951  0.45055945  0.41042058    -0.36100
N242        N  0.58556001  0.44772276  0.48072186    -0.56700
N243        N  0.51862980  0.44664628  0.55902317    -0.36100
N244        N  0.43166501  0.44665971  0.48822397    -0.56700
C245        C  0.53553571  0.44547112  0.38087479     0.27500
C246        C  0.45442330  0.44452947  0.38488009     0.27500
C247        C  0.56296722  0.44059962  0.58429761     0.27500
C248        C  0.48155902  0.43947798  0.58849428     0.27500
C249        C  0.60966178  0.45252634  0.43981651     0.36100
C250        C  0.62066967  0.44961016  0.51813240     0.36100
C251        C  0.39683153  0.45100060  0.45086663     0.36100
C252        C  0.40737928  0.44861844  0.52931459     0.36100
C253        C  0.51503146  0.43641226  0.33592271    -0.21400
C254        C  0.46405769  0.43576581  0.33847329    -0.21400
C255        C  0.55395205  0.43065930  0.63088673    -0.21400
C256        C  0.50307704  0.43035569  0.63377215    -0.21400
C257        C  0.66033715  0.45741222  0.45127117    -0.22500
C258        C  0.66732945  0.45549125  0.50093837    -0.22400
C259        C  0.35024544  0.45600332  0.46821485    -0.22500
C260        C  0.35686302  0.45441792  0.51792298    -0.22400
C261        C  0.58742546  0.45002398  0.39228595    -0.17800
C262        C  0.40577963  0.44768869  0.40154072    -0.17800
C263        C  0.42896782  0.44177316  0.57643253    -0.17800
C264        C  0.61162292  0.44426199  0.56731775    -0.17800
H265        H  0.53458803  0.43076245  0.30430106     0.15100
H266        H  0.43734726  0.42949597  0.30919018     0.15100
H267        H  0.58105672  0.42449419  0.66031905     0.15100
H268        H  0.48486231  0.42458656  0.66645765     0.15100
H269        H  0.68939107  0.46131384  0.42637174     0.13400
H270        H  0.70275481  0.45778163  0.52196173     0.13400
H271        H  0.31502065  0.45968946  0.44720586     0.13400
H272        H  0.32755279  0.45658297  0.54276347     0.13400
H273        H  0.50251835  0.46077702  0.44401697     0.26700
H274        H  0.51395396  0.45743273  0.52517744     0.26700
N275        N  0.48942771  0.03412515  0.45968055    -0.36100
N276        N  0.58026744  0.02787771  0.52198005    -0.56700
N277        N  0.51136556  0.02826233  0.59929087    -0.36100
N278        N  0.42188023  0.03257463  0.53823160    -0.56700
C279        C  0.52468787  0.02922974  0.42778626     0.27500
C280        C  0.44409557  0.02980334  0.43589769     0.27500
C281        C  0.55529153  0.01796380  0.62034366     0.27500
C282        C  0.47562900  0.02156627  0.63008642     0.27500
C283        C  0.60023202  0.03905195  0.48162513     0.36100
C284        C  0.61177994  0.03609685  0.55971721     0.36100
C285        C  0.39021679  0.04340326  0.50180296     0.36100
C286        C  0.40335423  0.04138596  0.58003369     0.36100
C287        C  0.50159423  0.02068020  0.38377340    -0.21400
C288        C  0.45094113  0.02141719  0.38873666    -0.21400
C289        C  0.54706616  0.00356701  0.66451885    -0.21400
C290        C  0.49647832  0.00555213  0.67043761    -0.21400
C291        C  0.64601925  0.05312523  0.49347723    -0.22500
C292        C  0.65311212  0.05151617  0.54337920    -0.22400
C293        C  0.35008146  0.05829852  0.52044745    -0.22500
C294        C  0.35856710  0.05714715  0.57028296    -0.22400
C295        C  0.57587472  0.03758086  0.43495950    -0.17800
C296        C  0.39776694  0.03960879  0.45229458    -0.17800
C297        C  0.42755939  0.03490826  0.62610973    -0.17800
C298        C  0.60165927  0.03038582  0.60832072    -0.17800
H299        H  0.51925326  0.01604908  0.35063642     0.15100
H300        H  0.42256897  0.01823724  0.35975102     0.15100
H301        H  0.57517865  0.99501125  0.69150792     0.15100
H302        H  0.47777453  0.99813197  0.70224280     0.15100
H303        H  0.67065428  0.06439743  0.46900061     0.13400
H304        H  0.68445742  0.06099165  0.56511457     0.13400
H305        H  0.31850857  0.06922047  0.50028359     0.13400
H306        H  0.33489368  0.06711107  0.59604863     0.13400
H307        H  0.49554761  0.04550075  0.49220811     0.26700
H308        H  0.50803619  0.04499408  0.57154926     0.26700
C309        C  0.32940345  0.44551287  0.29193244     0.20800
C310        C  0.32221633  0.45313350  0.24218010    -0.39000
C311        C  0.30740230  0.42865974  0.21176914     0.19800
C312        C  0.30042100  0.39893052  0.22993789     0.22500
C313        C  0.30623526  0.39146744  0.27959924    -0.39500
C314        C  0.32104696  0.41586574  0.30991593     0.21300
N315        N  0.35432749  0.46247364  0.32586153    -0.32800
C316        C  0.36255442  0.44354581  0.36549531    -0.10400
C317        C  0.34085263  0.41454870  0.35724003    -0.29200
N318        N  0.29212123  0.37908518  0.19376682    -0.45800
C319        C  0.29321806  0.39608246  0.15200105    -0.05100
C320        C  0.30206575  0.42733209  0.16160938    -0.22400
H321        H  0.33117327  0.47590055  0.22786666     0.19400
H322        H  0.30327820  0.36784326  0.29321231     0.18200
H323        H  0.34671677  0.39381247  0.37967632     0.14400
H324        H  0.30615072  0.44615367  0.13562621     0.14300
H325        H  0.37106267  0.48393199  0.31972938     0.32500
H326        H  0.28637126  0.35518470  0.19726734     0.35200
C327        C  0.35905393  0.44390921  0.68095935     0.20800
C328        C  0.34066475  0.45900390  0.72050965    -0.39000
C329        C  0.34274581  0.44202901  0.76439256     0.19800
C330        C  0.36098299  0.41207781  0.76836023     0.22500
C331        C  0.37701564  0.39640531  0.72844160    -0.39500
C332        C  0.37533030  0.41347222  0.68468467     0.21300
N333        N  0.37030197  0.45683157  0.63832824    -0.34000
C334        C  0.39480016  0.43465221  0.61540319    -0.10400
C335        C  0.39609704  0.40678412  0.64209900    -0.29200
N336        N  0.35779855  0.40058757  0.81348343    -0.45800
C337        C  0.33601625  0.42299987  0.83832908    -0.05100
C338        C  0.32651129  0.44940847  0.80892402    -0.22400
H339        H  0.32662814  0.48237279  0.71775747     0.19400
H340        H  0.39157201  0.37300673  0.73165038     0.18200
H341        H  0.41686608  0.38609389  0.63477366     0.14400
H342        H  0.30638829  0.47007310  0.81766107     0.14300
H343        H  0.36684138  0.48012994  0.62778850     0.32500
H344        H  0.36493182  0.37771695  0.82515362     0.35200
C345        C  0.13613111  0.29241418  0.28573902     0.20800
C346        C  0.14264298  0.27819229  0.24141656    -0.39000
C347        C  0.15042625  0.29826502  0.20206806     0.19800
C348        C  0.14888733  0.33011400  0.20616550     0.22500
C349        C  0.14289547  0.34436857  0.25043585    -0.39500
C350        C  0.13762155  0.32425183  0.29023605     0.21300
N351        N  0.12284451  0.27870860  0.32703701    -0.32800
C352        C  0.11631385  0.30185185  0.35830656    -0.10400
C353        C  0.12637408  0.33060912  0.33681429    -0.29200
N354        N  0.15860167  0.34418654  0.16421619    -0.45800
C355        C  0.16880276  0.32131761  0.13358759    -0.05100
C356        C  0.16370894  0.29217347  0.15577302    -0.22400
H357        H  0.14119518  0.25339987  0.23760344     0.19400
H358        H  0.14234266  0.36932733  0.25361331     0.18200
H359        H  0.11892012  0.35321354  0.35089285     0.14400
H360        H  0.17241185  0.26982682  0.14145867     0.14300
H361        H  0.11282662  0.25554036  0.33155186     0.32500
H362        H  0.16320856  0.36802088  0.15837932     0.35200
C363        C  0.19217280  0.32320173  0.66812704     0.20800
C364        C  0.20971396  0.34780864  0.69691887    -0.39000
C365        C  0.21385082  0.34193553  0.74709310     0.19800
C366        C  0.20299853  0.31337631  0.76776382     0.22500
C367        C  0.18547320  0.28856922  0.73888718    -0.39500
C368        C  0.17996841  0.29477343  0.68843637     0.21300
N369        N  0.17440881  0.32543276  0.62141956    -0.32800
C370        C  0.14895097  0.29879972  0.61179667    -0.10400
C371        C  0.15272857  0.27898222  0.65261115    -0.29200
N372        N  0.20596491  0.31486973  0.81674882    -0.45800
C373        C  0.21731225  0.34490011  0.82666000    -0.05100
C374        C  0.22284275  0.36219436  0.78423327    -0.22400
H375        H  0.21567274  0.37074831  0.68164043     0.19400
H376        H  0.17318669  0.26688614  0.75470368     0.18200
H377        H  0.13077096  0.25849173  0.65814216     0.14400
H378        H  0.23102070  0.38673242  0.78106164     0.14300
H379        H  0.17291314  0.34566062  0.59986496     0.32500
H380        H  0.19850507  0.29710985  0.84155313     0.35200
C381        C  0.71470775  0.39896949  0.74557120     0.20800
C382        C  0.70950415  0.39014901  0.69700962    -0.39000
C383        C  0.69606807  0.41377958  0.66307249     0.19800
C384        C  0.68846021  0.44394920  0.67682389     0.22500
C385        C  0.69548394  0.45298491  0.72542702    -0.39500
C386        C  0.70896583  0.42929328  0.75941595     0.21300
N387        N  0.72034755  0.38002793  0.78452923    -0.32800
C388        C  0.71884283  0.39817841  0.82369922    -0.10400
C389        C  0.71274788  0.42931270  0.80971934    -0.29200
N390        N  0.66361063  0.45991484  0.64061306    -0.45800
C391        C  0.65495649  0.44017619  0.60364214    -0.05100
C392        C  0.67605556  0.41127613  0.61593828    -0.22400
H393        H  0.71136638  0.36610487  0.68691015     0.19400
H394        H  0.68686909  0.47618598  0.73639263     0.18200
H395        H  0.70908102  0.44891013  0.83293068     0.14400
H396        H  0.66955852  0.38998894  0.59652009     0.14300
H397        H  0.72445932  0.35593915  0.78457609     0.32500
H398        H  0.64590059  0.48100543  0.64391487     0.35200
C399        C  0.65892361  0.41858704  0.20529379     0.20800
C400        C  0.66105122  0.40660338  0.25284463    -0.39000
C401        C  0.64951668  0.42752358  0.28827650     0.19800
C402        C  0.63579259  0.45787933  0.27689457     0.22500
C403        C  0.63550762  0.47016694  0.22939823    -0.39500
C404        C  0.64842416  0.44939740  0.19408727     0.21300
N405        N  0.66857053  0.40333411  0.16548836    -0.32800
C406        C  0.66670204  0.42470663  0.12881291    -0.10400
C407        C  0.65418898  0.45387380  0.14513935    -0.29200
N408        N  0.61732086  0.47116578  0.31523322    -0.45800
C409        C  0.62006338  0.44936117  0.35137687    -0.05100
C410        C  0.64085738  0.42199688  0.33614432    -0.22400
H411        H  0.66953950  0.38248721  0.26138933     0.19400
H412        H  0.62453107  0.49383101  0.22038847     0.18200
H413        H  0.65247727  0.47560260  0.12473930     0.14400
H414        H  0.64226338  0.39979341  0.35523333     0.14300
H415        H  0.68007141  0.38026392  0.16406961     0.32500
H416        H  0.59794697  0.49213334  0.31490838     0.35200
C417        C  0.86062800  0.30581858  0.68740945     0.20800
C418        C  0.84767884  0.28995565  0.72947800    -0.39000
C419        C  0.84803052  0.30753237  0.77129400     0.19800
C420        C  0.86045532  0.33865176  0.77133250     0.22500
C421        C  0.87209152  0.35487228  0.72888724    -0.39500
C422        C  0.87172210  0.33718191  0.68688158     0.21300
N423        N  0.87146312  0.29304153  0.64570286    -0.32800
C424        C  0.89076494  0.31603848  0.61868719    -0.10400
C425        C  0.88944980  0.34431990  0.64228974    -0.29200
N426        N  0.85675625  0.35019297  0.81559763    -0.45800
C427        C  0.84045726  0.32645465  0.84360058    -0.05100
C428        C  0.83505691  0.29937495  0.81715797    -0.22400
H429        H  0.83961460  0.26544930  0.72997278     0.19400
H430        H  0.88236532  0.37916771  0.72892615     0.18200
H431        H  0.90671463  0.36591718  0.63153320     0.14400
H432        H  0.81928170  0.27747686  0.82864441     0.14300
H433        H  0.87183741  0.26949270  0.63845721     0.32500
H434        H  0.85995043  0.37350399  0.82480669     0.35200
C435        C  0.81557789  0.32669254  0.31335741     0.20800
C436        C  0.79828771  0.35216366  0.28460448    -0.39000
C437        C  0.79373644  0.34757939  0.23451417     0.19800
C438        C  0.80411606  0.31951044  0.21413930     0.22500
C439        C  0.82128786  0.29392429  0.24293466    -0.39500
C440        C  0.82687186  0.29869573  0.29319114     0.21300
N441        N  0.83352940  0.32748987  0.35991902    -0.32800
C442        C  0.85816366  0.30038059  0.36935754    -0.10400
C443        C  0.85319519  0.28145319  0.32889744    -0.29200
N444        N  0.80018055  0.32197536  0.16527168    -0.45800
C445        C  0.78844717  0.35206965  0.15486799    -0.05100
C446        C  0.78403732  0.36860249  0.19709435    -0.22400
H447        H  0.79251000  0.37466485  0.29982481     0.19400
H448        H  0.83302394  0.27263066  0.22714756     0.18200
H449        H  0.87337625  0.26036593  0.32342122     0.14400
H450        H  0.77559685  0.39299928  0.19995708     0.14300
H451        H  0.83576705  0.34709482  0.38143512     0.32500
H452        H  0.80701906  0.30471884  0.14070638     0.35200
C453        C  0.64940903  0.04619041  0.33193042     0.20800
C454        C  0.68475799  0.03735160  0.29949776    -0.39000
C455        C  0.67755285  0.04993056  0.25220460     0.19800
C456        C  0.63839031  0.06985742  0.23837963     0.22500
C457        C  0.60322269  0.07867078  0.27068944    -0.39500
C458        C  0.61032333  0.06609738  0.31773934     0.21300
N459        N  0.64478917  0.03524260  0.37744285    -0.32800
C460        C  0.60199993  0.04800024  0.39172111    -0.10400
C461        C  0.58039852  0.06797463  0.35585076    -0.29200
N462        N  0.64110092  0.07985483  0.19228261    -0.45800
C463        C  0.68244954  0.06629914  0.17644910    -0.05100
C464        C  0.70580435  0.04715966  0.21270121    -0.22400
H465        H  0.71510188  0.02150616  0.31004555     0.19400
H466        H  0.57217002  0.09392316  0.25982943     0.18200
H467        H  0.54500755  0.08011418  0.35615244     0.14400
H468        H  0.74088139  0.03478842  0.21152202     0.14300
H469        H  0.66696203  0.01835822  0.39604476     0.32500
H470        H  0.61799857  0.09633786  0.17378247     0.35200
C471        C  0.69158094  0.06395814  0.80100236     0.20800
C472        C  0.70647271  0.04812662  0.76025883    -0.39000
C473        C  0.67404418  0.05120751  0.71799734     0.19800
C474        C  0.63097921  0.06901346  0.71685516     0.22500
C475        C  0.61582932  0.08414990  0.75726398    -0.39500
C476        C  0.64741696  0.08071697  0.79912148     0.21300
N477        N  0.71711635  0.06732110  0.84441838    -0.32800
C478        C  0.68852185  0.08639510  0.86970449    -0.10400
C479        C  0.64445739  0.09450904  0.84264983    -0.29200
N480        N  0.60466878  0.06698474  0.67438940    -0.45800
C481        C  0.62943035  0.04673399  0.64814291    -0.05100
C482        C  0.67401884  0.03701044  0.67355271    -0.22400
H483        H  0.74039499  0.03439778  0.76140913     0.19400
H484        H  0.58166490  0.09767069  0.75616251     0.18200
H485        H  0.61636533  0.11106957  0.85168559     0.14400
H486        H  0.70038327  0.01985245  0.66306619     0.14300
H487        H  0.75331550  0.05938961  0.85451912     0.32500
H488        H  0.56891420  0.07616211  0.66575246     0.35200
C489        C  0.86849443  0.16832293  0.32810879     0.20800
C490        C  0.88204500  0.15080196  0.28930603    -0.39000
C491        C  0.85234405  0.15491467  0.24626450     0.19800
C492        C  0.81101863  0.17423918  0.24205442     0.22500
C493        C  0.79750619  0.19215017  0.28118708    -0.39500
C494        C  0.82848008  0.18875605  0.32437261     0.21300
N495        N  0.89489234  0.17096567  0.37051525    -0.32800
C496        C  0.87333490  0.19406493  0.39394528    -0.10400
C497        C  0.83087339  0.20542212  0.36684417    -0.29200
N498        N  0.78717243  0.17201547  0.19763353    -0.45800
C499        C  0.81390947  0.15112789  0.17386660    -0.05100
C500        C  0.85530423  0.14059777  0.20301726    -0.22400
H501        H  0.91430004  0.13556397  0.29214047     0.19400
H502        H  0.76614205  0.20805084  0.27789089     0.18200
H503        H  0.80844443  0.22531260  0.37462957     0.14400
H504        H  0.88154648  0.12259859  0.19517587     0.14300
H505        H  0.92896014  0.16001864  0.38074570     0.32500
H506        H  0.75296979  0.18216767  0.18565929     0.35200
C507        C  0.85643391  0.17599178  0.80293445     0.20800
C508        C  0.89222822  0.16970894  0.76983806    -0.39000
C509        C  0.88252164  0.18256185  0.72319625     0.19800
C510        C  0.84021370  0.20006756  0.71000392     0.22500
C511        C  0.80426533  0.20624479  0.74313345    -0.39500
C512        C  0.81443363  0.19383346  0.79006897     0.21300
N513        N  0.85577494  0.16531464  0.84893899    -0.32800
C514        C  0.81292638  0.17647743  0.86543353    -0.10400
C515        C  0.78665122  0.19472903  0.82989582    -0.29200
N516        N  0.84205925  0.21176818  0.66460644    -0.45800
C517        C  0.88652886  0.20215195  0.64948656    -0.05100
C518        C  0.91203646  0.18332576  0.68466814    -0.22400
H519        H  0.92559898  0.15622472  0.77983835     0.19400
H520        H  0.77135097  0.22020420  0.73339913     0.18200
H521        H  0.75005189  0.20519557  0.83168540     0.14400
H522        H  0.94938568  0.17379052  0.68366331     0.14300
H523        H  0.88117890  0.14988438  0.86685561     0.32500
H524        H  0.81660930  0.22713580  0.64664319     0.35200
C525        C  0.33168454  0.05210447  0.81242078     0.20800
C526        C  0.31979445  0.04101133  0.76577365    -0.39000
C527        C  0.35689140  0.04502404  0.73275024     0.19800
C528        C  0.40271605  0.05854940  0.74559726     0.22500
C529        C  0.41419761  0.07040969  0.79201826    -0.39500
C530        C  0.37661221  0.06685806  0.82491124     0.21300
N531        N  0.30146974  0.05250383  0.84909619    -0.32800
C532        C  0.32626076  0.06847346  0.88501337    -0.10400
C533        C  0.37367841  0.07763593  0.87143128    -0.29200
N534        N  0.43257807  0.05784490  0.70850474    -0.45800
C535        C  0.40551969  0.04392803  0.67165670    -0.05100
C536        C  0.35769554  0.03620411  0.68516598    -0.22400
H537        H  0.28408215  0.03015937  0.75588352     0.19400
H538        H  0.44957543  0.08173734  0.80164965     0.18200
H539        H  0.40080440  0.09194318  0.89144637     0.14400
H540        H  0.32834834  0.02442600  0.66383780     0.14300
H541        H  0.26450735  0.04440824  0.84821376     0.32500
H542        H  0.46967795  0.06562171  0.70861340     0.35200
C543        C  0.32474618  0.05384907  0.34260881     0.20800
C544        C  0.30225538  0.04553355  0.29692933    -0.39000
C545        C  0.30537112  0.06797163  0.25914612     0.19800
C546        C  0.33035403  0.09573805  0.26679327     0.22500
C547        C  0.35206074  0.10402123  0.31192360    -0.39500
C548        C  0.34770483  0.08233074  0.34944219     0.21300
N549        N  0.33305028  0.03573724  0.38277406    -0.32800
C550        C  0.36158479  0.05298981  0.41474551    -0.10400
C551        C  0.37020030  0.08237292  0.39537119    -0.29200
N552        N  0.32919099  0.11319578  0.22633063    -0.45800
C553        C  0.30215459  0.09736929  0.19186676    -0.05100
C554        C  0.28649310  0.06871180  0.21086134    -0.22400
H555        H  0.28462730  0.02317777  0.29110138     0.19400
H556        H  0.37196825  0.12571062  0.31720436     0.18200
H557        H  0.39617975  0.09961752  0.41006184     0.14400
H558        H  0.26300189  0.05149467  0.19264134     0.14300
H559        H  0.32494925  0.01212599  0.38624491     0.32500
H560        H  0.34396436  0.13556483  0.22322839     0.35200
C561        C  0.16164648  0.18833786  0.72113852     0.20800
C562        C  0.20059967  0.19120663  0.75778068    -0.39000
C563        C  0.19062575  0.17854003  0.80358365     0.19800
C564        C  0.14516342  0.16455256  0.81178242     0.22500
C565        C  0.10694648  0.16125105  0.77532211    -0.39500
C566        C  0.11706312  0.17350583  0.72996457     0.21300
N567        N  0.15947863  0.20044053  0.67563454    -0.32800
C568        C  0.11276134  0.19355949  0.65627393    -0.10400
C569        C  0.08609675  0.17601295  0.68874815    -0.29200
N570        N  0.14552474  0.15251005  0.85668938    -0.45800
C571        C  0.19199804  0.15776159  0.87749555    -0.05100
C572        C  0.22117237  0.17456136  0.84582371    -0.22400
H573        H  0.23588813  0.20239419  0.75115327     0.19400
H574        H  0.07172671  0.14991230  0.78185263     0.18200
H575        H  0.04729220  0.16866537  0.68424177     0.14400
H576        H  0.26075266  0.17995669  0.85094031     0.14300
H577        H  0.18649469  0.21433279  0.66014704     0.32500
H578        H  0.11724523  0.13889968  0.87074643     0.35200
C579        C  0.13734035  0.16928610  0.24537184     0.20800
C580        C  0.10889130  0.15716090  0.28225119    -0.39000
C581        C  0.11714952  0.17084552  0.32767734     0.19800
C582        C  0.15176216  0.19440192  0.33606573     0.22500
C583        C  0.18052472  0.20625403  0.29927184    -0.39500
C584        C  0.17153028  0.19301064  0.25365612     0.21300
N585        N  0.13771386  0.15970269  0.19946258    -0.32800
C586        C  0.17270772  0.17735870  0.17838484    -0.10400
C587        C  0.19377781  0.19881196  0.21097163    -0.29200
N588        N  0.14794110  0.20619665  0.38026951    -0.45800
C589        C  0.10973618  0.19063638  0.39966531    -0.05100
C590        C  0.09049330  0.16789069  0.36836093    -0.22400
H591        H  0.08127178  0.13905619  0.27570485     0.19400
H592        H  0.20673160  0.22519222  0.30526658     0.18200
H593        H  0.22461481  0.21458999  0.20556900     0.14400
H594        H  0.05721791  0.15391449  0.37234759     0.14300
H595        H  0.11830402  0.14072133  0.18464994     0.32500
H596        H  0.16608677  0.22591871  0.39401112     0.35200
N597        N  0.42799384  0.74856516  0.99937011    -0.36100
N598        N  0.50238513  0.69959605  0.01992339    -0.56700
N599        N  0.58189571  0.74645751  0.02207394    -0.36100
N600        N  0.50628035  0.79532522  0.99671370    -0.56700
C601        C  0.39870986  0.72310816  0.99220344     0.27500
C602        C  0.40088220  0.77358757  0.98260410     0.27500
C603        C  0.60994897  0.72019357  0.02270751     0.27500
C604        C  0.61182282  0.77040910  0.00944922     0.27500
C605        C  0.46012845  0.68231787  0.02320217     0.36100
C606        C  0.54195320  0.68083033  0.03293320     0.36100
C607        C  0.46602874  0.81452134  0.99630076     0.36100
C608        C  0.54795111  0.81322781  0.00260936     0.36100
C609        C  0.35266893  0.73216816  0.97014320    -0.21400
C610        C  0.35404945  0.76388834  0.96416529    -0.21400
C611        C  0.65852041  0.72784176  0.01178970    -0.21400
C612        C  0.65966197  0.75928523  0.00338277    -0.21400
C613        C  0.47307019  0.65229530  0.03798568    -0.22500
C614        C  0.52474666  0.65128360  0.04361650    -0.22400
C615        C  0.48230346  0.84487974  0.00136471    -0.22500
C616        C  0.53412883  0.84410432  0.00465317    -0.22400
C617        C  0.41035047  0.69249860  0.00951176    -0.17800
C618        C  0.41506108  0.80507039  0.98837576    -0.17800
C619        C  0.59822953  0.80223433  0.00436801    -0.17800
C620        C  0.59342965  0.68931389  0.03186058    -0.17800
H621        H  0.32071733  0.71763543  0.96023967     0.15100
H622        H  0.32351380  0.77822039  0.94886486     0.15100
H623        H  0.69001486  0.71235652  0.00942356     0.15100
H624        H  0.69221807  0.77240112  0.99353753     0.15100
H625        H  0.44800206  0.63285472  0.04267158     0.13400
H626        H  0.54715144  0.63102857  0.05393233     0.13400
H627        H  0.45928728  0.86547382  0.00158762     0.13400
H628        H  0.55883581  0.86396329  0.00851707     0.13400
H629        H  0.46123991  0.74934126  0.02098931     0.26700
H630        H  0.54553685  0.74828737  0.03269637     0.26700
N631        N  0.92807209  0.49953916  0.99188753    -0.36100
N632        N  0.00467456  0.95104703  0.99746272    -0.56700
N633        N  0.08148248  0.49819976  0.02314203    -0.36100
N634        N  0.00328644  0.54646809  0.01722808    -0.56700
C635        C  0.89937514  0.97460404  0.98020501     0.27500
C636        C  0.89981449  0.52541847  0.98306401     0.27500
C637        C  0.11086860  0.97378291  0.01473067     0.27500
C638        C  0.11008934  0.52430310  0.02554218     0.27500
C639        C  0.96334356  0.93253750  0.99536806     0.36100
C640        C  0.04546866  0.93224646  0.00276811     0.36100
C641        C  0.96152977  0.56434906  0.01763277     0.36100
C642        C  0.04267945  0.56370598  0.03495235     0.36100
C643        C  0.85256361  0.98493096  0.96201640    -0.21400
C644        C  0.85348738  0.51694884  0.96140506    -0.21400
C645        C  0.15928874  0.98491419  0.01096962    -0.21400
C646        C  0.15882026  0.51695444  0.01534289    -0.21400
C647        C  0.97808364  0.90174653  0.99876613    -0.22500
C648        C  0.02995361  0.90156136  0.00265498    -0.22400
C649        C  0.97478126  0.59327137  0.03540592    -0.22500
C650        C  0.02596726  0.59290293  0.04607595    -0.22400
C651        C  0.91271225  0.94293372  0.98752598    -0.17800
C652        C  0.91208163  0.55563758  0.99982464    -0.17800
C653        C  0.09403908  0.55477776  0.03602232    -0.17800
C654        C  0.09646713  0.94237622  0.00665726    -0.17800
H655        H  0.82108429  0.97100839  0.94854548     0.15100
H656        H  0.82190325  0.53176685  0.95073297     0.15100
H657        H  0.19188160  0.97214738  0.00143064     0.15100
H658        H  0.19079365  0.53238239  0.01446683     0.15100
H659        H  0.95400112  0.88151480  0.99730080     0.13400
H660        H  0.05356070  0.88116929  0.00564573     0.13400
H661        H  0.95042524  0.61296666  0.03898483     0.13400
H662        H  0.04850392  0.61215555  0.05954551     0.13400
H663        H  0.96121137  0.49808115  0.01354341     0.26700
H664        H  0.04475506  0.49621247  0.03293868     0.26700
O665        O  0.14092805  0.59037263  0.99207410    -0.80400
O666        O  0.33912281  0.66082083  0.98298294    -0.65100
O667        O  0.24243935  0.59795193  0.01110464    -1.11700
C668        C  0.19631763  0.66993530  0.12876722     1.06500
O669        O  0.35760712  0.66469187  0.06136614    -0.78300
O670        O  0.30379588  0.64151784  0.13406783    -0.65900
Ni671      Ni  0.20066867  0.57946607  0.96197491     1.34900
C672        C  0.28509990  0.61477290  0.14074026     0.85200
O673        O  0.31972941  0.60343795  0.94693375    -0.78800
O674        O  0.25799711  0.56884942  0.92768460    -0.89100
C675        C  0.36721037  0.67126578  0.01797350     0.84800
O676        O  0.18931303  0.61437597  0.92083628    -0.67300
O677        O  0.23465160  0.68571325  0.11762966    -0.86600
C678        C  0.21162619  0.63982739  0.91447429     0.85600
C679        C  0.30096501  0.58103644  0.92184156     1.07200
H680        H  0.23594814  0.66820757  0.02194681     0.39000
O681        O  0.25587034  0.65259799  0.03982637    -1.09300
O682        O  0.25301587  0.60237905  0.11072246    -0.65900
Ni683      Ni  0.20982440  0.62101380  0.05853523     1.26300
O684        O  0.24965279  0.64859563  0.94084869    -0.66100
O685        O  0.18086718  0.64547012  0.10696747    -0.78400
C686        C  0.13273968  0.57973287  0.03363307     0.85000
O687        O  0.16131022  0.58816898  0.06982295    -0.65600
Ni688      Ni  0.29448045  0.67446556  0.08758961     1.27400
Ni689      Ni  0.28982701  0.62891917  0.99386816     1.26100
H690        H  0.26117137  0.58127900  0.02765199     0.39600
O691        O  0.86202976  0.58443121  0.05011338    -0.80400
O692        O  0.66340295  0.65657722  0.06272384    -0.65100
O693        O  0.75878514  0.59359736  0.03340594    -1.11700
C694        C  0.78948331  0.66389859  0.90406744     1.06500
O695        O  0.63573521  0.65298832  0.98699867    -0.78300
O696        O  0.68016885  0.62666019  0.91594341    -0.65900
Ni697      Ni  0.80227078  0.57410025  0.08199497     1.34900
C698        C  0.70603189  0.60293293  0.90862422     0.85200
O699        O  0.68777924  0.60011889  0.10424740    -0.78800
O700        O  0.74644080  0.56283555  0.11890751    -0.89100
C701        C  0.63147963  0.66426312  0.02819221     0.84800
O702        O  0.81444831  0.60867758  0.12180845    -0.67300
O703        O  0.74541655  0.67391204  0.91015792    -0.86600
C704        C  0.79417718  0.63487404  0.12628540     0.85600
C705        C  0.70627611  0.57673841  0.12851670     1.07200
H706        H  0.75750741  0.66504464  0.01228767     0.39000
O707        O  0.73925060  0.64738838  0.99910133    -1.09300
O708        O  0.74686504  0.59623230  0.93300108    -0.65900
Ni709      Ni  0.78787828  0.61752081  0.98262197     1.26300
O710        O  0.75744248  0.64494171  0.09849147    -0.66100
O711        O  0.81252524  0.64332104  0.93140891    -0.78400
C712        C  0.86922512  0.57706023  0.00714888     0.85000
O713        O  0.83902839  0.58679141  0.97239517    -0.65600
Ni714      Ni  0.69224799  0.66333501  0.95055305     1.27400
Ni715      Ni  0.71211747  0.62444209  0.05145291     1.26100
H716        H  0.73908005  0.57710126  0.01848518     0.39600
O717        O  0.64886382  0.83177114  0.95268351    -0.80400
O718        O  0.84550837  0.91005574  0.95491621    -0.65100
O719        O  0.74997147  0.84535647  0.97608366    -1.11700
C720        C  0.69014818  0.91804873  0.08616777     1.06500
O721        O  0.85613242  0.91441328  0.03428216    -0.78300
O722        O  0.79433349  0.89398738  0.10400190    -0.65900
Ni723      Ni  0.71295876  0.82469626  0.92582795     1.34900
C724        C  0.78025474  0.86594377  0.10828852     0.85200
O725        O  0.83102198  0.85291748  0.91776160    -0.78800
O726        O  0.77371309  0.81623010  0.89499620    -0.89100
C727        C  0.87023941  0.92060358  0.99209439     0.84800
O728        O  0.70245718  0.85892676  0.88175232    -0.67300
O729        O  0.72529926  0.93618654  0.07396531    -0.86600
C730        C  0.72659968  0.88387221  0.87482809     0.85600
C731        C  0.81479996  0.83102540  0.89041806     1.07200
H732        H  0.73746347  0.91519595  0.98377441     0.39000
O733        O  0.75755310  0.90066590  0.00377848    -1.09300
O734        O  0.75675304  0.85138536  0.07414502    -0.65900
Ni735      Ni  0.71359157  0.86808075  0.02067984     1.26300
O736        O  0.75935961  0.89495093  0.90538599    -0.66100
O737        O  0.68057352  0.89180413  0.06705529    -0.78400
C738        C  0.63968557  0.82455626  0.99606493     0.85000
O739        O  0.66786772  0.83445413  0.03135590    -0.65600
Ni740      Ni  0.78977173  0.92469278  0.05287872     1.27400
Ni741      Ni  0.79655168  0.87734630  0.96193221     1.26100
H742        H  0.76883010  0.82934079  0.99408648     0.39600
O743        O  0.36062187  0.83407537  0.03443919    -0.80400
O744        O  0.16871514  0.91068946  0.03180646    -0.65100
O745        O  0.26024507  0.84563722  0.00615158    -1.11700
C746        C  0.30743771  0.91496534  0.88345694     1.06500
O747        O  0.14362592  0.91213492  0.95412657    -0.78300
O748        O  0.19316086  0.88077843  0.88562671    -0.65900
Ni749      Ni  0.29583377  0.82277107  0.05676513     1.34900
C750        C  0.22170188  0.85805526  0.87818263     0.85200
O751        O  0.18598682  0.85376995  0.07172913    -0.78800
O752        O  0.23330845  0.81056916  0.08289461    -0.89100
C753        C  0.13771571  0.92001378  0.99748271     0.84800
O754        O  0.30178805  0.85408087  0.10412021    -0.67300
O755        O  0.26300241  0.92571571  0.88474342    -0.86600
C756        C  0.28641719  0.88175330  0.10652035     0.85600
C757        C  0.19700029  0.82797458  0.09329864     1.07200
H758        H  0.26545839  0.91781633  0.98809678     0.39000
O759        O  0.24750839  0.90051858  0.97304742    -1.09300
O760        O  0.25973764  0.85050953  0.90626562    -0.65900
Ni761      Ni  0.29627105  0.86974338  0.96083035     1.26300
O762        O  0.26040517  0.89559946  0.07212242    -0.66100
O763        O  0.32769744  0.89533408  0.91416628    -0.78400
C764        C  0.37328511  0.82777622  0.99234805     0.85000
O765        O  0.34735165  0.83830245  0.95512267    -0.65600
Ni766      Ni  0.20543661  0.91782827  0.92137314     1.27400
Ni767      Ni  0.21545039  0.87765095  0.02194340     1.26100
H768        H  0.24051594  0.83071085  0.98830817     0.39600
N769        N  0.99239887  0.71201459  0.44824429    -0.36100
N770        N  0.91390279  0.71964832  0.51502208    -0.56700
N771        N  0.99845940  0.71646328  0.58624317    -0.36100
N772        N  0.07632477  0.71152172  0.51971723    -0.56700
C773        C  0.95138859  0.71989226  0.41929155     0.27500
C774        C  0.03254510  0.71470304  0.42111403     0.27500
C775        C  0.95956428  0.72539823  0.61125160     0.27500
C776        C  0.04085208  0.72243452  0.61376988     0.27500
C777        C  0.88569709  0.70984400  0.47609921     0.36100
C778        C  0.88971803  0.71087301  0.55434940     0.36100
C779        C  0.09941792  0.69946956  0.48263911     0.36100
C780        C  0.10278067  0.70234397  0.56075201     0.36100
C781        C  0.96612025  0.72851479  0.37378577    -0.21400
C782        C  0.01718202  0.72547927  0.37503933    -0.21400
C783        C  0.97731519  0.73854662  0.65428204    -0.21400
C784        C  0.02871168  0.73656238  0.65600856    -0.21400
C785        C  0.84173131  0.69637780  0.49043579    -0.22500
C786        C  0.84438820  0.69693257  0.54044489    -0.22400
C787        C  0.14255805  0.68392321  0.49983742    -0.22500
C788        C  0.14456235  0.68561019  0.54975666    -0.22400
C789        C  0.90182431  0.71124391  0.42870638    -0.17800
C790        C  0.08037018  0.70201037  0.43403492    -0.17800
C791        C  0.08724580  0.70803072  0.60734248    -0.17800
C792        C  0.91034941  0.71429081  0.60204406    -0.17800
H793        H  0.94240180  0.73338899  0.34149820     0.15100
H794        H  0.03974751  0.72836606  0.34427148     0.15100
H795        H  0.95533927  0.74604065  0.68332416     0.15100
H796        H  0.05378829  0.74208340  0.68694876     0.15100
H797        H  0.81197442  0.68617060  0.46750070     0.13400
H798        H  0.81706931  0.68729927  0.56377566     0.13400
H799        H  0.16875764  0.67184265  0.47881012     0.13400
H800        H  0.17265919  0.67510964  0.57494064     0.13400
H801        H  0.99175316  0.69916950  0.48040090     0.26700
H802        H  0.99570837  0.70069572  0.55835423     0.26700
N803        N  0.01347301  0.80053105  0.56659080    -0.36100
N804        N  0.08105002  0.79730780  0.49021228    -0.56700
N805        N  0.99402513  0.79646089  0.41885067    -0.36100
N806        N  0.92693756  0.80278186  0.49467616    -0.56700
C807        C  0.05805576  0.80433875  0.59228225     0.27500
C808        C  0.97717705  0.81090799  0.59403722     0.27500
C809        C  0.03165365  0.80298238  0.38985646     0.27500
C810        C  0.95032986  0.80261935  0.39260173     0.27500
C811        C  0.11497476  0.79181741  0.52806060     0.36100
C812        C  0.10471008  0.79242647  0.44939341     0.36100
C813        C  0.90268714  0.80215104  0.53594777     0.36100
C814        C  0.89223915  0.79672593  0.45815805     0.36100
C815        C  0.04979656  0.81643607  0.63700225    -0.21400
C816        C  0.99914217  0.82041785  0.63824281    -0.21400
C817        C  0.01135780  0.81284964  0.34452013    -0.21400
C818        C  0.96036187  0.81283521  0.34640454    -0.21400
C819        C  0.16048100  0.78332575  0.51120183    -0.22500
C820        C  0.15400551  0.78377310  0.46130367    -0.22400
C821        C  0.85225995  0.79564816  0.52559933    -0.22500
C822        C  0.84570902  0.79206081  0.47626206    -0.22400
C823        C  0.10608712  0.79669529  0.57718643    -0.17800
C824        C  0.92462258  0.80994685  0.58201476    -0.17800
C825        C  0.90150013  0.79831593  0.40853432    -0.17800
C826        C  0.08360805  0.79842493  0.40180327    -0.17800
H827        H  0.07724805  0.82196574  0.66606560     0.15100
H828        H  0.98114872  0.82888714  0.66911236     0.15100
H829        H  0.03079266  0.81914047  0.31271492     0.15100
H830        H  0.93387539  0.81969656  0.31682879     0.15100
H831        H  0.19486996  0.77786051  0.53259324     0.13400
H832        H  0.18242276  0.77866043  0.43657650     0.13400
H833        H  0.82311980  0.79401684  0.55087765     0.13400
H834        H  0.81061913  0.78725006  0.45592165     0.13400
H835        H  0.00771915  0.78867119  0.53448821     0.26700
H836        H  0.99780072  0.78525851  0.45253224     0.26700
N837        N  0.49855472  0.95030243  0.41341495    -0.36100
N838        N  0.58599940  0.94772783  0.48324781    -0.56700
N839        N  0.51929474  0.94653321  0.56177404    -0.36100
N840        N  0.43213216  0.94663354  0.49140334    -0.56700
C841        C  0.53572041  0.94494676  0.38387570     0.27500
C842        C  0.45470415  0.94358784  0.38831999     0.27500
C843        C  0.56371008  0.94055391  0.58694190     0.27500
C844        C  0.48235145  0.93948386  0.59145366     0.27500
C845        C  0.60992330  0.95265697  0.44226546     0.36100
C846        C  0.62119925  0.94962283  0.52057249     0.36100
C847        C  0.39705953  0.95032731  0.45413187     0.36100
C848        C  0.40784630  0.94823372  0.53250688     0.36100
C849        C  0.51520702  0.93498494  0.33946174    -0.21400
C850        C  0.46430207  0.93402071  0.34231933    -0.21400
C851        C  0.55485390  0.93077127  0.63365246    -0.21400
C852        C  0.50401681  0.93052870  0.63673708    -0.21400
C853        C  0.66058021  0.95767962  0.45356916    -0.22500
C854        C  0.66774923  0.95567781  0.50323798    -0.22400
C855        C  0.35029292  0.95459450  0.47152629    -0.22500
C856        C  0.35706303  0.95318714  0.52120710    -0.22400
C857        C  0.58756466  0.94990771  0.39483617    -0.17800
C858        C  0.40605957  0.94683175  0.40490693    -0.17800
C859        C  0.42972679  0.94158700  0.57953267    -0.17800
C860        C  0.61230577  0.94415271  0.56978366    -0.17800
H861        H  0.53473604  0.92885640  0.30804993     0.15100
H862        H  0.43759489  0.92696068  0.31352688     0.15100
H863        H  0.58203183  0.92465002  0.66304083     0.15100
H864        H  0.48589926  0.92488078  0.66952840     0.15100
H865        H  0.68951782  0.96164722  0.42856569     0.13400
H866        H  0.70322357  0.95800743  0.52416372     0.13400
H867        H  0.31483784  0.95747977  0.45059021     0.13400
H868        H  0.32765044  0.95472954  0.54606634     0.13400
H869        H  0.50272653  0.96112176  0.44655374     0.26700
H870        H  0.51449642  0.95713328  0.52780459     0.26700
N871        N  0.49018485  0.53457914  0.45532786    -0.36100
N872        N  0.58075515  0.52766374  0.51820350    -0.56700
N873        N  0.51114098  0.52804778  0.59482196    -0.36100
N874        N  0.42210655  0.53304996  0.53341499    -0.56700
C875        C  0.52571536  0.52946920  0.42379748     0.27500
C876        C  0.44497428  0.53030399  0.43124385     0.27500
C877        C  0.55482536  0.51755713  0.61610146     0.27500
C878        C  0.47522437  0.52185868  0.62562380     0.27500
C879        C  0.60095550  0.53906296  0.47814488     0.36100
C880        C  0.61196941  0.53579817  0.55618877     0.36100
C881        C  0.39079275  0.54404319  0.49681689     0.36100
C882        C  0.40358809  0.54210807  0.57510274     0.36100
C883        C  0.50290770  0.52090369  0.37966989    -0.21400
C884        C  0.45215201  0.52176388  0.38422501    -0.21400
C885        C  0.54618996  0.50340534  0.66037969    -0.21400
C886        C  0.49566351  0.50594125  0.66624462    -0.21400
C887        C  0.64659516  0.55320625  0.49041158    -0.22500
C888        C  0.65336307  0.55138017  0.54031137    -0.22400
C889        C  0.35085729  0.55926844  0.51525967    -0.22500
C890        C  0.35915321  0.55818712  0.56512000    -0.22400
C891        C  0.57694565  0.53767799  0.43137103    -0.17800
C892        C  0.39852916  0.54016873  0.44733733    -0.17800
C893        C  0.42746361  0.53559062  0.62131507    -0.17800
C894        C  0.60127701  0.53009204  0.60459935    -0.17800
H895        H  0.52085255  0.51614855  0.34674067     0.15100
H896        H  0.42394611  0.51844983  0.35511080     0.15100
H897        H  0.57410732  0.49488034  0.68759091     0.15100
H898        H  0.47680336  0.49899683  0.69819108     0.15100
H899        H  0.67130619  0.56468099  0.46621723     0.13400
H900        H  0.68447236  0.56087619  0.56234585     0.13400
H901        H  0.31959002  0.57041217  0.49494421     0.13400
H902        H  0.33561399  0.56839627  0.59077984     0.13400
H903        H  0.49614913  0.54604078  0.48779923     0.26700
H904        H  0.50822242  0.54473364  0.56700578     0.26700
C905        C  0.33099513  0.94492279  0.29480166     0.20800
C906        C  0.32456890  0.95273538  0.24505736    -0.39000
C907        C  0.31007165  0.92839309  0.21425405     0.19800
C908        C  0.30280322  0.89861549  0.23208805     0.22500
C909        C  0.30814788  0.89092643  0.28168079    -0.39500
C910        C  0.32255919  0.91519075  0.31237608     0.21300
N911        N  0.35510951  0.96183387  0.32926533    -0.32800
C912        C  0.36297125  0.94275542  0.36875765    -0.10400
C913        C  0.34164795  0.91371776  0.35992726    -0.29200
N914        N  0.29419876  0.87897880  0.19571781    -0.45800
C915        C  0.29529981  0.89613498  0.15411811    -0.05100
C916        C  0.30466976  0.92730125  0.16404200    -0.22400
H917        H  0.33358796  0.97558626  0.23111453     0.19400
H918        H  0.30488732  0.86726047  0.29502042     0.18200
H919        H  0.34741861  0.89289131  0.38217323     0.14400
H920        H  0.30880454  0.94622664  0.13825242     0.14300
H921        H  0.37167649  0.98339729  0.32363388     0.32500
H922        H  0.28801112  0.85510854  0.19898471     0.35200
C923        C  0.35819162  0.94319877  0.68303672     0.20800
C924        C  0.33849043  0.95814338  0.72203908    -0.39000
C925        C  0.34026307  0.94126518  0.76595233     0.19800
C926        C  0.35927176  0.91150320  0.77040701     0.22500
C927        C  0.37652428  0.89592146  0.73097638    -0.39500
C928        C  0.37532394  0.91293904  0.68722769     0.21300
N929        N  0.37002505  0.95621702  0.64069411    -0.34000
C930        C  0.39572192  0.93427417  0.61847275    -0.10400
C931        C  0.39732122  0.90644970  0.64523845    -0.29200
N932        N  0.35596858  0.90016554  0.81556492    -0.45800
C933        C  0.33344818  0.92251051  0.83990282    -0.05100
C934        C  0.32341228  0.94868237  0.81017683    -0.22400
H935        H  0.32387498  0.98138017  0.71894583     0.19400
H936        H  0.39176759  0.87270083  0.73460840     0.18200
H937        H  0.41874842  0.88594315  0.63834650     0.14400
H938        H  0.30284109  0.96924208  0.81858325     0.14300
H939        H  0.36594588  0.97945451  0.62993640     0.32500
H940        H  0.36375144  0.87744500  0.82763403     0.35200
C941        C  0.13708932  0.79239367  0.28898779     0.20800
C942        C  0.14403116  0.77806303  0.24486259    -0.39000
C943        C  0.15189423  0.79803684  0.20545130     0.19800
C944        C  0.14987371  0.82989415  0.20925744     0.22500
C945        C  0.14323360  0.84427306  0.25329745    -0.39500
C946        C  0.13802835  0.82425362  0.29321831     0.21300
N947        N  0.12407519  0.77871902  0.33037987    -0.32800
C948        C  0.11703557  0.80189901  0.36142365    -0.10400
C949        C  0.12662676  0.83067395  0.33972861    -0.29200
N950        N  0.15991821  0.84386662  0.16734590    -0.45800
C951        C  0.17075639  0.82093459  0.13707194    -0.05100
C952        C  0.16581017  0.79183789  0.15941188    -0.22400
H953        H  0.14296179  0.75326043  0.24124904     0.19400
H954        H  0.14232211  0.86924140  0.25624587     0.18200
H955        H  0.11878389  0.85327320  0.35362219     0.14400
H956        H  0.17490216  0.76947923  0.14537094     0.14300
H957        H  0.11462226  0.75548412  0.33512033     0.32500
H958        H  0.16423389  0.86770607  0.16132117     0.35200
C959        C  0.19151761  0.82209063  0.67143925     0.20800
C960        C  0.20853584  0.84675343  0.70034229    -0.39000
C961        C  0.21214120  0.84091602  0.75050861     0.19800
C962        C  0.20114979  0.81236626  0.77112249     0.22500
C963        C  0.18409181  0.78749766  0.74213423    -0.39500
C964        C  0.17924696  0.79364112  0.69163646     0.21300
N965        N  0.17426768  0.82428000  0.62459296    -0.32800
C966        C  0.14899669  0.79761802  0.61473884    -0.10400
C967        C  0.15253419  0.77777989  0.65554259    -0.29200
N968        N  0.20391782  0.81386495  0.82011107    -0.45800
C969        C  0.21542375  0.84387911  0.83002741    -0.05100
C970        C  0.22107669  0.86116435  0.78764067    -0.22400
H971        H  0.21460767  0.86968827  0.68509533     0.19400
H972        H  0.17176771  0.76579068  0.75784224     0.18200
H973        H  0.13056857  0.75726950  0.66086930     0.14400
H974        H  0.22949480  0.88567197  0.78449695     0.14300
H975        H  0.17280096  0.84452906  0.60308650     0.32500
H976        H  0.19645831  0.79609772  0.84490249     0.35200
C977        C  0.71703474  0.89875645  0.74752461     0.20800
C978        C  0.71184905  0.89016418  0.69883469    -0.39000
C979        C  0.69745135  0.91381799  0.66522862     0.19800
C980        C  0.68893280  0.94378630  0.67941241     0.22500
C981        C  0.69572787  0.95259003  0.72813529    -0.39500
C982        C  0.71019957  0.92889712  0.76177286     0.21300
N983        N  0.72333067  0.87965749  0.78626608    -0.32800
C984        C  0.72099061  0.89753802  0.82565449    -0.10400
C985        C  0.71385674  0.92865048  0.81206991    -0.29200
N986        N  0.66368531  0.95971083  0.64340414    -0.45800
C987        C  0.65568780  0.94017690  0.60609045    -0.05100
C988        C  0.67750715  0.91141270  0.61802399    -0.22400
H989        H  0.71448207  0.86621963  0.68841542     0.19400
H990        H  0.68628409  0.97557713  0.73945176     0.18200
H991        H  0.70920371  0.94801124  0.83552836     0.14400
H992        H  0.67165903  0.89020130  0.59826620     0.14300
H993        H  0.72811924  0.85562428  0.78603025     0.32500
H994        H  0.64520541  0.98051356  0.64699119     0.35200
C995        C  0.65844281  0.91840337  0.20737385     0.20800
C996        C  0.66076293  0.90644016  0.25496674    -0.39000
C997        C  0.64930449  0.92735853  0.29046119     0.19800
C998        C  0.63546538  0.95769424  0.27909421     0.22500
C999        C  0.63510024  0.96998094  0.23156936    -0.39500
C1000       C  0.64794589  0.94921267  0.19619220     0.21300
N1001       N  0.66800613  0.90314756  0.16752247    -0.32800
C1002       C  0.66620810  0.92451115  0.13082570    -0.10400
C1003       C  0.65371154  0.95368594  0.14721079    -0.29200
N1004       N  0.61702781  0.97096525  0.31748798    -0.45800
C1005       C  0.61997811  0.94919997  0.35369595    -0.05100
C1006       C  0.64080961  0.92184778  0.33840101    -0.22400
H1007       H  0.66934915  0.88233563  0.26350236     0.19400
H1008       H  0.62412971  0.99365088  0.22259349     0.18200
H1009       H  0.65206000  0.97542760  0.12684413     0.14400
H1010       H  0.64236777  0.89965708  0.35752499     0.14300
H1011       H  0.67944961  0.88006869  0.16608610     0.32500
H1012       H  0.59759589  0.99191389  0.31720628     0.35200
C1013       C  0.86148347  0.80537778  0.69004992     0.20800
C1014       C  0.84872016  0.78930351  0.73202671    -0.39000
C1015       C  0.84829980  0.80683911  0.77386253     0.19800
C1016       C  0.85995181  0.83807433  0.77398305     0.22500
C1017       C  0.87143446  0.85446803  0.73166096    -0.39500
C1018       C  0.87177901  0.83684899  0.68964643     0.21300
N1019       N  0.87264223  0.79282204  0.64826728    -0.32800
C1020       C  0.89118381  0.81610681  0.62127147    -0.10400
C1021       C  0.88938735  0.84428054  0.64510123    -0.29200
N1022       N  0.85608397  0.84949103  0.81828716    -0.45800
C1023       C  0.84054513  0.82555602  0.84631511    -0.05100
C1024       C  0.83556631  0.79848835  0.81976146    -0.22400
H1025       H  0.84143474  0.76468987  0.73245570     0.19400
H1026       H  0.88110648  0.87885630  0.73181498     0.18200
H1027       H  0.90608402  0.86607223  0.63442187     0.14400
H1028       H  0.82045050  0.77640979  0.83127726     0.14300
H1029       H  0.87365696  0.76928892  0.64090448     0.32500
H1030       H  0.85883244  0.87280348  0.82758318     0.35200
C1031       C  0.81477705  0.82599661  0.31538547     0.20800
C1032       C  0.79659470  0.85125816  0.28669469    -0.39000
C1033       C  0.79213141  0.84669129  0.23661017     0.19800
C1034       C  0.80324633  0.81876920  0.21615267     0.22500
C1035       C  0.82109270  0.79332017  0.24490891    -0.39500
C1036       C  0.82675097  0.79814641  0.29516632     0.21300
N1037       N  0.83309261  0.82703549  0.36182837    -0.32800
C1038       C  0.85861275  0.80023614  0.37115971    -0.10400
C1039       C  0.85383950  0.78126253  0.33074060    -0.29200
N1040       N  0.79973623  0.82138846  0.16728899    -0.45800
C1041       C  0.78760688  0.85144960  0.15702887    -0.05100
C1042       C  0.78242168  0.86777296  0.19929430    -0.22400
H1043       H  0.79034349  0.87369646  0.30192671     0.19400
H1044       H  0.83348120  0.77219211  0.22908019     0.18200
H1045       H  0.87424154  0.76035160  0.32513525     0.14400
H1046       H  0.77369696  0.89211941  0.20227207     0.14300
H1047       H  0.83482231  0.84665402  0.38332109     0.32500
H1048       H  0.80727811  0.80430515  0.14266508     0.35200
C1049       C  0.65065137  0.54634424  0.32857389     0.20800
C1050       C  0.68552155  0.53730270  0.29577922    -0.39000
C1051       C  0.67822438  0.55010635  0.24861607     0.19800
C1052       C  0.63942537  0.57040199  0.23526563     0.22500
C1053       C  0.60478587  0.57941584  0.26792799    -0.39500
C1054       C  0.61197381  0.56664722  0.31481518     0.21300
N1055       N  0.64592507  0.53519139  0.37396362    -0.32800
C1056       C  0.60343437  0.54821306  0.38848308    -0.10400
C1057       C  0.58222506  0.56856746  0.35301423    -0.29200
N1058       N  0.64190600  0.58051196  0.18920589    -0.45800
C1059       C  0.68276674  0.56667534  0.17289690    -0.05100
C1060       C  0.70601436  0.54722850  0.20881161    -0.22400
H1061       H  0.71551719  0.52112961  0.30593948     0.19400
H1062       H  0.57397885  0.59493034  0.25742009     0.18200
H1063       H  0.54705838  0.58092677  0.35355302     0.14400
H1064       H  0.74076242  0.53456376  0.20720880     0.14300
H1065       H  0.66768057  0.51797679  0.39223836     0.32500
H1066       H  0.61901424  0.59724139  0.17104684     0.35200
C1067       C  0.69150769  0.56316244  0.79722152     0.20800
C1068       C  0.70700097  0.54858160  0.75560388    -0.39000
C1069       C  0.67374767  0.55135602  0.71391589     0.19800
C1070       C  0.62939278  0.56781508  0.71410165     0.22500
C1071       C  0.61366215  0.58168626  0.75536707    -0.39500
C1072       C  0.64607497  0.57849154  0.79668082     0.21300
N1073       N  0.71754950  0.56671989  0.84030456    -0.32800
C1074       C  0.68806783  0.58453485  0.86671338    -0.10400
C1075       C  0.64286680  0.59153541  0.84075403    -0.29200
N1076       N  0.60262868  0.56569177  0.67193799    -0.45800
C1077       C  0.62837562  0.54656437  0.64464981    -0.05100
C1078       C  0.67404741  0.53783866  0.66896431    -0.22400
H1079       H  0.74197788  0.53597652  0.75570936     0.19400
H1080       H  0.57848813  0.59411235  0.75527619     0.18200
H1081       H  0.61383458  0.60716534  0.85072882     0.14400
H1082       H  0.70126786  0.52151352  0.65751236     0.14300
H1083       H  0.75458159  0.55996142  0.84937361     0.32500
H1084       H  0.56613972  0.57394513  0.66417822     0.35200
C1085       C  0.86896215  0.67008453  0.32247458     0.20800
C1086       C  0.88305238  0.65326216  0.28319360    -0.39000
C1087       C  0.85256576  0.65695904  0.24061654     0.19800
C1088       C  0.81003351  0.67526048  0.23725726     0.22500
C1089       C  0.79594628  0.69252361  0.27692604    -0.39500
C1090       C  0.82772111  0.68956157  0.31968956     0.21300
N1091       N  0.89574953  0.67290481  0.36457021    -0.32800
C1092       C  0.87336137  0.69531641  0.38871820    -0.10400
C1093       C  0.82974600  0.70585830  0.36254937    -0.29200
N1094       N  0.78563550  0.67259103  0.19315754    -0.45800
C1095       C  0.81320619  0.65240860  0.16882937    -0.05100
C1096       C  0.85568702  0.64285212  0.19723070    -0.22400
H1097       H  0.91622480  0.63879872  0.28538012     0.19400
H1098       H  0.76353250  0.70760746  0.27434553     0.18200
H1099       H  0.80617508  0.72504261  0.37117172     0.14400
H1100       H  0.88278652  0.62547111  0.18891601     0.14300
H1101       H  0.93045591  0.66255052  0.37415076     0.32500
H1102       H  0.75058165  0.68185065  0.18184924     0.35200
C1103       C  0.85489545  0.67419243  0.79708582     0.20800
C1104       C  0.88996513  0.66728154  0.76355122    -0.39000
C1105       C  0.88055562  0.68051834  0.71710579     0.19800
C1106       C  0.83905127  0.69886942  0.70448474     0.22500
C1107       C  0.80373277  0.70556779  0.73799217    -0.39500
C1108       C  0.81372365  0.69285298  0.78476343     0.21300
N1109       N  0.85423443  0.66349742  0.84308644    -0.32800
C1110       C  0.81212909  0.67537946  0.86009102    -0.10400
C1111       C  0.78646131  0.69421817  0.82492283    -0.29200
N1112       N  0.84137339  0.71102139  0.65942565    -0.45800
C1113       C  0.88541378  0.70092245  0.64399553    -0.05100
C1114       C  0.91009607  0.68125963  0.67854416    -0.22400
H1115       H  0.92274916  0.65318254  0.77316602     0.19400
H1116       H  0.77154281  0.72023925  0.72870652     0.18200
H1117       H  0.75047851  0.70539243  0.82715745     0.14400
H1118       H  0.94710927  0.67127201  0.67728416     0.14300
H1119       H  0.87899857  0.64753291  0.86062724     0.32500
H1120       H  0.81672209  0.72708644  0.64200639     0.35200
C1121       C  0.33246891  0.55320341  0.80787153     0.20800
C1122       C  0.32052601  0.54174859  0.76147181    -0.39000
C1123       C  0.35719316  0.54600762  0.72806616     0.19800
C1124       C  0.40273269  0.56004419  0.74037468     0.22500
C1125       C  0.41417526  0.57235784  0.78650395    -0.39500
C1126       C  0.37695079  0.56860940  0.81974489     0.21300
N1127       N  0.30261535  0.55335354  0.84483454    -0.32800
C1128       C  0.32709848  0.56984876  0.88030707    -0.10400
C1129       C  0.37400882  0.57962737  0.86613125    -0.29200
N1130       N  0.43238172  0.55932312  0.70311336    -0.45800
C1131       C  0.40540837  0.54495813  0.66666316    -0.05100
C1132       C  0.35786872  0.53692062  0.68060077    -0.22400
H1133       H  0.28509171  0.53042799  0.75205573     0.19400
H1134       H  0.44927014  0.58412903  0.79567888     0.18200
H1135       H  0.40074083  0.59444605  0.88566091     0.14400
H1136       H  0.32868511  0.52472198  0.65969525     0.14300
H1137       H  0.26599598  0.54471017  0.84441849     0.32500
H1138       H  0.46933634  0.56732357  0.70289037     0.35200
C1139       C  0.32457239  0.55489061  0.33791924     0.20800
C1140       C  0.30196398  0.54687851  0.29214288    -0.39000
C1141       C  0.30370981  0.56989069  0.25503218     0.19800
C1142       C  0.32718426  0.59806276  0.26342182     0.22500
C1143       C  0.34903775  0.60604673  0.30868187    -0.39500
C1144       C  0.34641903  0.58363101  0.34548472     0.21300
N1145       N  0.33407600  0.53632228  0.37740581    -0.32800
C1146       C  0.36236964  0.55350369  0.40964740    -0.10400
C1147       C  0.36971119  0.58326479  0.39114381    -0.29200
N1148       N  0.32545280  0.61586419  0.22325276    -0.45800
C1149       C  0.29989486  0.59970189  0.18818438    -0.05100
C1150       C  0.28538923  0.57064752  0.20658540    -0.22400
H1151       H  0.28551495  0.52426283  0.28565604     0.19400
H1152       H  0.36808099  0.62797370  0.31448302     0.18200
H1153       H  0.39501354  0.60072541  0.40627379     0.14400
H1154       H  0.26347703  0.55298346  0.18768264     0.14300
H1155       H  0.32649663  0.51262720  0.38038721     0.32500
H1156       H  0.33941748  0.63845349  0.22052705     0.35200
C1157       C  0.16192036  0.68776693  0.71550562     0.20800
C1158       C  0.20087003  0.69091898  0.75206018    -0.39000
C1159       C  0.19093895  0.67851037  0.79801629     0.19800
C1160       C  0.14558613  0.66442643  0.80636280     0.22500
C1161       C  0.10738396  0.66086454  0.77002610    -0.39500
C1162       C  0.11737767  0.67295856  0.72458816     0.21300
N1163       N  0.15955618  0.69975012  0.66994972    -0.32800
C1164       C  0.11266476  0.69296646  0.65097395    -0.10400
C1165       C  0.08617784  0.67544370  0.68358612    -0.29200
N1166       N  0.14591860  0.65271313  0.85142537    -0.45800
C1167       C  0.19225966  0.65829710  0.87222654    -0.05100
C1168       C  0.22138414  0.67498194  0.84038389    -0.22400
H1169       H  0.23604489  0.70220494  0.74529933     0.19400
H1170       H  0.07219846  0.64954317  0.77674816     0.18200
H1171       H  0.04728888  0.66821712  0.67939443     0.14400
H1172       H  0.26088441  0.68058978  0.84553561     0.14300
H1173       H  0.18646986  0.71361632  0.65424586     0.32500
H1174       H  0.11773869  0.63908558  0.86562508     0.35200
C1175       C  0.13681731  0.66982374  0.23972690     0.20800
C1176       C  0.10697475  0.65790724  0.27566454    -0.39000
C1177       C  0.11561717  0.67058632  0.32178991     0.19800
C1178       C  0.15191451  0.69295869  0.33172416     0.22500
C1179       C  0.18216224  0.70453330  0.29588076    -0.39500
C1180       C  0.17271268  0.69238062  0.24951825     0.21300
N1181       N  0.13664288  0.66126370  0.19326456    -0.32800
C1182       C  0.17286385  0.67846216  0.17325815    -0.10400
C1183       C  0.19548625  0.69853361  0.20719436    -0.29200
N1184       N  0.14832140  0.70412573  0.37638907    -0.45800
C1185       C  0.10856994  0.68942677  0.39450655    -0.05100
C1186       C  0.08808925  0.66776849  0.36191743    -0.22400
H1187       H  0.07798478  0.64079668  0.26789405     0.19400
H1188       H  0.20965297  0.72262943  0.30305939     0.18200
H1189       H  0.22742581  0.71360141  0.20274704     0.14400
H1190       H  0.05369445  0.65470173  0.36478322     0.14300
H1191       H  0.11575148  0.64325958  0.17722156     0.32500
H1192       H  0.16781847  0.72304048  0.39131141     0.35200
loop_ 
_geom_bond_atom_site_label_1 
_geom_bond_atom_site_label_2 
_geom_bond_distance 
_geom_bond_site_symmetry_2 
_ccdc_geom_bond_type 
N1            C6   1.357   1_554  A
N1            C5   1.358   1_554  A
N1           H33   1.036       .  S
N2            C9   1.359       .  A
N2           C10   1.358       .  A
N3            C8   1.359       .  A
N3            C7   1.360       .  A
N3           H34   1.038       .  S
N4           C11   1.359       .  A
N4           C12   1.357   1_556  A
C5           C13   1.389       .  A
C5           C21   1.425   1_556  A
C6           C22   1.422       .  A
C6           C14   1.386       .  A
C7           C15   1.389       .  A
C7           C24   1.425       .  A
C8           C23   1.423       .  A
C8           C16   1.388       .  A
C9           C21   1.429       .  A
C9           C17   1.387       .  A
C10          C24   1.425       .  A
C10          C18   1.385       .  A
C11          C19   1.386   1_556  A
C11          C22   1.427       .  A
C12          C20   1.386       .  A
C12          C23   1.424       .  A
C13          C14   1.376       .  A
C13          H25   1.081       .  S
C14          H26   1.082       .  S
C15          C16   1.372       .  A
C15          H27   1.082       .  S
C16          H28   1.083   1_554  S
C17          C18   1.380       .  A
C17          H29   1.082       .  S
C18          H30   1.082       .  S
C19          C20   1.382       .  A
C19          H31   1.082       .  S
C20          H32   1.082       .  S
C21          C79   1.502       .  S
C22         C168   1.501       .  S
C23         C142   1.496   1_554  S
C24         C105   1.498       .  S
N35          C40   1.358   1_565  A
N35         C635   1.354       .  A
N35          H67   1.035   1_556  S
N36          C43   1.360   1_455  A
N36          C44   1.359   1_556  A
N37          C42   1.359   1_565  A
N37         C637   1.361       .  A
N37          H68   1.038       .  S
N38          C45   1.359   1_455  A
N38          C46   1.358       .  A
C39         N631   1.355       .  A
C39          C47   1.386       .  A
C39          C55   1.419       .  A
C40          C56   1.424   1_556  A
C40          C48   1.390       .  A
C41         N633   1.361       .  A
C41          C49   1.388       .  A
C41          C58   1.426       .  A
C42          C57   1.426       .  A
C42          C50   1.389       .  A
C43          C55   1.429       .  A
C43          C51   1.386       .  A
C44          C58   1.428       .  A
C44          C52   1.386       .  A
C45          C53   1.388       .  A
C45          C56   1.431       .  A
C46          C54   1.385       .  A
C46          C57   1.424       .  A
C47         C644   1.375       .  A
C47          H59   1.082       .  S
C48         C643   1.375   1_545  A
C48          H60   1.081       .  S
C49         C646   1.372       .  A
C49          H61   1.082   1_554  S
C50         C645   1.372   1_545  A
C50          H62   1.082       .  S
C51          C52   1.383   1_656  A
C51          H63   1.082       .  S
C52          H64   1.082       .  S
C53          C54   1.379   1_655  A
C53          H65   1.082       .  S
C54          H66   1.082       .  S
C55         C131   1.499       .  S
C56         C116   1.501       .  S
C57          C90   1.493       .  S
C58         C157   1.505   1_554  S
O69         Ni75   1.913       .  S
O69          C90   1.261   1_556  A
O70         Ni93   1.939       .  S
O70          C79   1.276   1_556  A
O71         Ni75   1.891   1_554  S
O71         Ni93   1.912   1_554  S
O71         Ni87   1.921       .  S
O71          H94   0.966       .  S
C72         C586   1.474       .  S
C72          O89   1.281       .  A
C72          O81   1.278       .  A
O73         Ni92   1.933       .  S
O73          C79   1.270       .  A
O74         Ni92   1.899       .  S
O74          C76   1.270       .  A
Ni75         O78   1.916       .  S
Ni75         O80   1.881       .  S
C76         C553   1.480       .  S
C76          O86   1.277       .  A
O77         Ni93   1.936       .  S
O77          C83   1.284       .  A
O78          C83   1.279       .  A
O80          C82   1.262       .  A
O81         Ni92   1.919       .  S
C82         C571   1.467       .  S
C82          O88   1.273       .  A
C83         C532   1.475       .  S
H84          O85   0.966       .  S
O85         Ni93   1.926   1_554  S
O85         Ni87   1.922       .  S
O85         Ni92   1.891       .  S
O86         Ni87   1.946       .  S
Ni87         O91   1.952       .  S
Ni87         O89   1.928       .  S
O88         Ni93   1.941       .  S
C90          O91   1.277       .  A
O95        Ni101   1.921       .  S
O95         C116   1.265       .  A
O96        Ni119   1.953       .  S
O96         C105   1.276       .  A
O97        Ni101   1.899       .  S
O97        Ni119   1.924       .  S
O97        Ni113   1.928   1_554  S
O97         H120   0.967       .  S
C98         C514   1.469       .  S
C98         O115   1.284       .  A
C98         O107   1.278       .  A
O99        Ni118   1.916       .  S
O99         C105   1.262   1_556  A
O100       Ni118   1.884       .  S
O100        C102   1.265       .  A
Ni101       O104   1.920       .  S
Ni101       O106   1.886       .  S
C102        C478   1.474       .  S
C102        O112   1.274       .  A
O103       Ni119   1.925       .  S
O103        C109   1.280       .  A
O104        C109   1.278       .  A
O106        C108   1.266       .  A
O107       Ni118   1.911       .  S
C108        C499   1.474       .  S
C108        O114   1.277       .  A
C109        C463   1.473       .  S
H110        O111   0.968       .  S
O111       Ni119   1.917       .  S
O111       Ni113   1.916   1_554  S
O111       Ni118   1.894   1_554  S
O112       Ni113   1.944       .  S
Ni113       O117   1.947       .  S
Ni113       O115   1.932       .  S
O114       Ni119   1.945       .  S
C116        O117   1.277   1_554  A
O121       Ni127   1.943       .  S
O121        C142   1.273       .  A
O122       Ni145   1.938       .  S
O122        C131   1.277       .  A
O123       Ni127   1.891       .  S
O123       Ni145   1.910       .  S
O123       Ni139   1.910   1_556  S
O123        H146   0.965       .  S
C124        C406   1.460       .  S
C124        O141   1.278       .  A
C124        O133   1.278       .  A
O125       Ni144   1.937       .  S
O125        C131   1.273   1_554  A
O126       Ni144   1.911       .  S
O126        C128   1.270       .  A
Ni127       O130   1.925       .  S
Ni127       O132   1.902       .  S
C128        C445   1.475       .  S
C128        O138   1.276       .  A
O129       Ni145   1.914       .  S
O129        C135   1.279       .  A
O130        C135   1.280       .  A
O132        C134   1.270       .  A
O133       Ni144   1.925       .  S
C134        C388   1.469       .  S
C134        O140   1.275       .  A
C135        C427   1.465       .  S
H136        O137   0.966   1_556  S
O137       Ni145   1.911   1_554  S
O137       Ni139   1.900       .  S
O137       Ni144   1.887       .  S
O138       Ni139   1.942       .  S
Ni139       O143   1.927       .  S
Ni139       O141   1.919       .  S
O140       Ni145   1.939       .  S
C142        O143   1.274   1_556  A
O147       Ni153   1.933       .  S
O147        C168   1.271   1_554  A
O148       Ni171   1.933       .  S
O148        C157   1.275   1_554  A
O149       Ni153   1.896       .  S
O149       Ni171   1.906       .  S
O149       Ni165   1.919   1_554  S
O149        H172   0.956   1_554  S
C150        C337   1.464       .  S
C150        O167   1.282       .  A
C150        O159   1.279       .  A
O151       Ni170   1.951       .  S
O151        C157   1.276       .  A
O152       Ni170   1.916       .  S
O152        C154   1.273       .  A
Ni153       O156   1.930       .  S
Ni153       O158   1.905       .  S
C154        C373   1.479       .  S
C154        O164   1.275       .  A
O155       Ni171   1.914       .  S
O155        C161   1.277       .  A
O156        C161   1.280       .  A
O158        C160   1.269       .  A
O159       Ni170   1.924       .  S
C160        C319   1.474       .  S
C160        O166   1.277       .  A
C161        C355   1.466       .  S
H162        O163   0.972       .  S
O163       Ni171   1.906   1_556  S
O163       Ni165   1.914       .  S
O163       Ni170   1.897       .  S
O164       Ni165   1.943       .  S
Ni165       O169   1.947       .  S
Ni165       O167   1.919       .  S
O166       Ni171   1.944       .  S
C168        O169   1.279       .  A
N173        C178   1.353   1_655  A
N173        C177   1.352       .  A
N173        H205   1.038       .  S
N174        C181   1.348       .  A
N174        C182   1.349       .  A
N175        C180   1.348   1_655  A
N175        C179   1.348       .  A
N175        H206   1.040       .  S
N176        C183   1.347       .  A
N176        C184   1.349       .  A
C177        C185   1.386       .  A
C177        C193   1.413       .  A
C178        C194   1.413       .  A
C178        C186   1.385       .  A
C179        C187   1.386       .  A
C179        C196   1.406       .  A
C180        C195   1.410       .  A
C180        C188   1.388       .  A
C181        C193   1.408       .  A
C181        C189   1.386       .  A
C182        C196   1.407       .  A
C182        C190   1.385       .  A
C183        C191   1.386       .  A
C183        C194   1.408       .  A
C184        C192   1.385       .  A
C184        C195   1.408       .  A
C185        C186   1.370   1_655  A
C185        H197   1.078       .  S
C186        H198   1.081       .  S
C187        C188   1.374   1_655  A
C187        H199   1.083       .  S
C188        H200   1.082       .  S
C189        C190   1.383       .  A
C189        H201   1.082       .  S
C190        H202   1.082       .  S
C191        C192   1.382       .  A
C191        H203   1.082       .  S
C192        H204   1.082       .  S
C193        C496   1.481       .  S
C194        C589   1.482       .  S
C195        C568   1.484       .  S
C196        C517   1.482       .  S
N207        C212   1.355   1_455  A
N207        C211   1.356       .  A
N207        H239   1.038       .  S
N208        C215   1.355       .  A
N208        C216   1.352       .  A
N209        C214   1.356       .  A
N209        C213   1.352   1_655  A
N209        H240   1.039       .  S
N210        C217   1.350       .  A
N210        C218   1.353       .  A
C211        C219   1.385       .  A
C211        C227   1.417       .  A
C212        C228   1.422       .  A
C212        C220   1.391       .  A
C213        C221   1.390       .  A
C213        C230   1.417       .  A
C214        C229   1.415       .  A
C214        C222   1.386       .  A
C215        C227   1.416       .  A
C215        C223   1.384       .  A
C216        C230   1.416       .  A
C216        C224   1.385       .  A
C217        C225   1.387       .  A
C217        C228   1.413       .  A
C218        C226   1.384       .  A
C218        C229   1.411       .  A
C219        C220   1.367   1_455  A
C219        H231   1.082       .  S
C220        H232   1.079       .  S
C221        C222   1.367   1_455  A
C221        H233   1.081       .  S
C222        H234   1.081       .  S
C223        C224   1.379       .  A
C223        H235   1.082       .  S
C224        H236   1.082       .  S
C225        C226   1.377       .  A
C225        H237   1.082       .  S
C226        H238   1.082       .  S
C227        C370   1.495       .  S
C228        C424   1.482       .  S
C229        C442   1.490       .  S
C230        C352   1.482       .  S
N241        C246   1.355       .  A
N241        C245   1.351       .  A
N241        H273   1.037       .  S
N242        C249   1.351       .  A
N242        C250   1.353       .  A
N243        C248   1.355       .  A
N243        C247   1.357       .  A
N243        H274   1.036       .  S
N244        C251   1.353       .  A
N244        C252   1.351       .  A
C245        C253   1.389       .  A
C245        C261   1.415       .  A
C246        C262   1.416       .  A
C246        C254   1.388       .  A
C247        C255   1.385       .  A
C247        C264   1.418       .  A
C248        C263   1.425       .  A
C248        C256   1.391       .  A
C249        C261   1.412       .  A
C249        C257   1.386       .  A
C250        C264   1.412       .  A
C250        C258   1.384       .  A
C251        C259   1.383       .  A
C251        C262   1.412       .  A
C252        C260   1.387       .  A
C252        C263   1.415       .  A
C253        C254   1.368       .  A
C253        H265   1.082       .  S
C254        H266   1.081       .  S
C255        C256   1.366       .  A
C255        H267   1.081       .  S
C256        H268   1.079       .  S
C257        C258   1.375       .  A
C257        H269   1.082       .  S
C258        H270   1.082       .  S
C259        C260   1.375       .  A
C259        H271   1.082       .  S
C260        H272   1.082       .  S
C261        C409   1.476       .  S
C262        C316   1.487       .  S
C263        C334   1.485       .  S
C264        C391   1.489       .  S
N275        C280   1.353       .  A
N275        C279   1.354       .  A
N275        H307   1.038       .  S
N276        C283   1.348       .  A
N276        C284   1.350       .  A
N277        C282   1.348       .  A
N277        C281   1.346       .  A
N277        H308   1.041       .  S
N278        C285   1.347       .  A
N278        C286   1.351       .  A
C279        C287   1.385       .  A
C279        C295   1.415       .  A
C280        C296   1.416       .  A
C280        C288   1.386       .  A
C281        C289   1.389       .  A
C281        C298   1.405       .  A
C282        C297   1.405       .  A
C282        C290   1.384       .  A
C283        C295   1.409       .  A
C283        C291   1.386       .  A
C284        C298   1.406       .  A
C284        C292   1.383       .  A
C285        C293   1.387       .  A
C285        C296   1.412       .  A
C286        C294   1.385       .  A
C286        C297   1.412       .  A
C287        C288   1.370       .  A
C287        H299   1.082       .  S
C288        H300   1.076       .  S
C289        C290   1.375       .  A
C289        H301   1.082   1_545  S
C290        H302   1.082   1_545  S
C291        C292   1.381       .  A
C291        H303   1.082       .  S
C292        H304   1.082       .  S
C293        C294   1.382       .  A
C293        H305   1.082       .  S
C294        H306   1.082       .  S
C295        C460   1.485       .  S
C296        C550   1.479       .  S
C297        C535   1.487       .  S
C298        C481   1.478       .  S
C309        N315   1.343       .  A
C309        C314   1.384       .  A
C309        C310   1.409       .  A
C310        C311   1.405       .  A
C310        H321   1.082       .  S
C311        C320   1.388       .  A
C311        C312   1.383       .  A
C312        N318   1.339       .  A
C312        C313   1.403       .  A
C313        C314   1.401       .  A
C313        H322   1.083       .  S
C314        C317   1.379       .  A
N315        C316   1.358       .  A
N315        H325   1.042       .  S
C316        C317   1.394       .  A
C317        H323   1.083       .  S
N318        C319   1.356       .  A
N318        H326   1.045       .  S
C319        C320   1.396       .  A
C320        H324   1.082       .  S
C327        N333   1.345       .  A
C327        C332   1.384       .  A
C327        C328   1.404       .  A
C328        C329   1.401       .  A
C328        H339   1.076       .  S
C329        C338   1.378       .  A
C329        C330   1.382       .  A
C330        N336   1.341       .  A
C330        C331   1.400       .  A
C331        C332   1.401       .  A
C331        H340   1.082       .  S
C332        C335   1.373       .  A
N333        C334   1.354       .  A
N333        H343   1.043       .  S
C334        C335   1.395       .  A
C335        H341   1.083       .  S
N336        C337   1.354       .  A
N336        H344   1.045       .  S
C337        C338   1.398       .  A
C338        H342   1.083       .  S
C345        N351   1.343       .  A
C345        C350   1.382       .  A
C345        C346   1.406       .  A
C346        C347   1.401       .  A
C346        H357   1.077       .  S
C347        C356   1.383       .  A
C347        C348   1.382       .  A
C348        N354   1.338       .  A
C348        C349   1.402       .  A
C349        C350   1.401       .  A
C349        H358   1.082       .  S
C350        C353   1.377       .  A
N351        C352   1.356       .  A
N351        H361   1.041       .  S
C352        C353   1.396       .  A
C353        H359   1.082       .  S
N354        C355   1.356       .  A
N354        H362   1.045       .  S
C355        C356   1.396       .  A
C356        H360   1.083       .  S
C363        N369   1.348       .  A
C363        C368   1.384       .  A
C363        C364   1.402       .  A
C364        C365   1.403       .  A
C364        H375   1.082       .  S
C365        C374   1.373       .  A
C365        C366   1.384       .  A
C366        N372   1.356       .  A
C366        C367   1.410       .  A
C367        C368   1.413       .  A
C367        H376   1.083       .  S
C368        C371   1.381       .  A
N369        C370   1.356       .  A
N369        H379   1.045       .  S
C370        C371   1.399       .  A
C371        H377   1.073       .  S
N372        C373   1.359       .  A
N372        H380   1.044       .  S
C373        C374   1.392       .  A
C374        H378   1.083       .  S
C381        N387   1.338       .  A
C381        C386   1.383       .  A
C381        C382   1.403       .  A
C382        C383   1.401       .  A
C382        H393   1.083       .  S
C383        C392   1.382       .  A
C383        C384   1.384       .  A
C384        N390   1.342       .  A
C384        C385   1.409       .  A
C385        C386   1.404       .  A
C385        H394   1.082       .  S
C386        C389   1.389       .  A
N387        C388   1.355       .  A
N387        H397   1.045       .  S
C388        C389   1.396       .  A
C389        H395   1.082       .  S
N390        C391   1.354       .  A
N390        H398   1.035       .  S
C391        C392   1.395       .  A
C392        H396   1.082       .  S
C399        N405   1.336       .  A
C399        C404   1.383       .  A
C399        C400   1.400       .  A
C400        C401   1.398       .  A
C400        H411   1.083       .  S
C401        C410   1.375       .  A
C401        C402   1.384       .  A
C402        N408   1.341       .  A
C402        C403   1.405       .  A
C403        C404   1.402       .  A
C403        H412   1.082       .  S
C404        C407   1.383       .  A
N405        C406   1.354       .  A
N405        H415   1.045       .  S
C406        C407   1.396       .  A
C407        H413   1.082       .  S
N408        C409   1.355       .  A
N408        H416   1.043       .  S
C409        C410   1.392       .  A
C410        H414   1.082       .  S
C417        N423   1.340       .  A
C417        C422   1.384       .  A
C417        C418   1.400       .  A
C418        C419   1.398       .  A
C418        H429   1.078       .  S
C419        C428   1.376       .  A
C419        C420   1.382       .  A
C420        N426   1.343       .  A
C420        C421   1.405       .  A
C421        C422   1.405       .  A
C421        H430   1.082       .  S
C422        C425   1.379       .  A
N423        C424   1.350       .  A
N423        H433   1.040       .  S
C424        C425   1.399       .  A
C425        H431   1.083       .  S
N426        C427   1.358       .  A
N426        H434   1.045       .  S
C427        C428   1.395       .  A
C428        H432   1.083       .  S
C435        N441   1.345       .  A
C435        C440   1.385       .  A
C435        C436   1.402       .  A
C436        C437   1.402       .  A
C436        H447   1.083       .  S
C437        C446   1.372       .  A
C437        C438   1.384       .  A
C438        N444   1.351       .  A
C438        C439   1.406       .  A
C439        C440   1.409       .  A
C439        H448   1.083       .  S
C440        C443   1.378       .  A
N441        C442   1.355       .  A
N441        H451   1.045       .  S
C442        C443   1.400       .  A
C443        H449   1.078       .  S
N444        C445   1.356       .  A
N444        H452   1.044       .  S
C445        C446   1.395       .  A
C446        H450   1.083       .  S
C453        N459   1.348       .  A
C453        C458   1.384       .  A
C453        C454   1.405       .  A
C454        C455   1.406       .  A
C454        H465   1.082       .  S
C455        C464   1.377       .  A
C455        C456   1.384       .  A
C456        N462   1.344       .  A
C456        C457   1.399       .  A
C457        C458   1.400       .  A
C457        H466   1.082       .  S
C458        C461   1.370       .  A
N459        C460   1.357       .  A
N459        H469   1.044       .  S
C460        C461   1.395       .  A
C461        H467   1.083       .  S
N462        C463   1.355       .  A
N462        H470   1.045       .  S
C463        C464   1.399       .  A
C464        H468   1.082       .  S
C471        N477   1.351       .  A
C471        C476   1.383       .  A
C471        C472   1.412       .  A
C472        C473   1.411       .  A
C472        H483   1.082       .  S
C473        C482   1.387       .  A
C473        C474   1.383       .  A
C474        N480   1.332       .  A
C474        C475   1.392       .  A
C475        C476   1.391       .  A
C475        H484   1.083       .  S
C476        C479   1.363       .  A
N477        C478   1.361       .  A
N477        H487   1.045       .  S
C478        C479   1.393       .  A
C479        H485   1.083       .  S
N480        C481   1.351       .  A
N480        H488   1.045       .  S
C481        C482   1.402       .  A
C482        H486   1.081       .  S
C489        N495   1.335       .  A
C489        C494   1.384       .  A
C489        C490   1.395       .  A
C490        C491   1.394       .  A
C490        H501   1.083       .  S
C491        C500   1.367       .  A
C491        C492   1.382       .  A
C492        N498   1.351       .  A
C492        C493   1.412       .  A
C493        C494   1.412       .  A
C493        H502   1.082       .  S
C494        C497   1.390       .  A
N495        C496   1.352       .  A
N495        H505   1.045       .  S
C496        C497   1.400       .  A
C497        H503   1.082       .  S
N498        C499   1.360       .  A
N498        H506   1.044       .  S
C499        C500   1.395       .  A
C500        H504   1.083       .  S
C507        N513   1.345       .  A
C507        C512   1.384       .  A
C507        C508   1.399       .  A
C508        C509   1.401       .  A
C508        H519   1.082       .  S
C509        C518   1.368       .  A
C509        C510   1.385       .  A
C510        N516   1.347       .  A
C510        C511   1.402       .  A
C511        C512   1.403       .  A
C511        H520   1.082       .  S
C512        C515   1.371       .  A
N513        C514   1.354       .  A
N513        H523   1.045       .  S
C514        C515   1.398       .  A
C515        H521   1.083       .  S
N516        C517   1.355       .  A
N516        H524   1.044       .  S
C517        C518   1.396       .  A
C518        H522   1.083       .  S
C525        N531   1.339       .  A
C525        C530   1.383       .  A
C525        C526   1.403       .  A
C526        C527   1.400       .  A
C526        H537   1.082       .  S
C527        C536   1.381       .  A
C527        C528   1.382       .  A
C528        N534   1.343       .  A
C528        C529   1.408       .  A
C529        C530   1.406       .  A
C529        H538   1.082       .  S
C530        C533   1.386       .  A
N531        C532   1.357       .  A
N531        H541   1.045       .  S
C532        C533   1.398       .  A
C533        H539   1.082       .  S
N534        C535   1.360       .  A
N534        H542   1.045       .  S
C535        C536   1.392       .  A
C536        H540   1.082       .  S
C543        N549   1.350       .  A
C543        C548   1.383       .  A
C543        C544   1.416       .  A
C544        C545   1.415       .  A
C544        H555   1.082       .  S
C545        C554   1.396       .  A
C545        C546   1.383       .  A
C546        N552   1.333       .  A
C546        C547   1.395       .  A
C547        C548   1.392       .  A
C547        H556   1.083       .  S
C548        C551   1.369       .  A
N549        C550   1.361       .  A
N549        H559   1.044       .  S
C550        C551   1.389       .  A
C551        H557   1.083       .  S
N552        C553   1.353       .  A
N552        H560   1.045       .  S
C553        C554   1.405       .  A
C554        H558   1.082       .  S
C561        N567   1.350       .  A
C561        C566   1.383       .  A
C561        C562   1.410       .  A
C562        C563   1.410       .  A
C562        H573   1.082       .  S
C563        C572   1.387       .  A
C563        C564   1.384       .  A
C564        N570   1.335       .  A
C564        C565   1.395       .  A
C565        C566   1.393       .  A
C565        H574   1.083       .  S
C566        C569   1.365       .  A
N567        C568   1.359       .  A
N567        H577   1.044       .  S
C568        C569   1.392       .  A
C569        H575   1.083       .  S
N570        C571   1.353       .  A
N570        H578   1.045       .  S
C571        C572   1.400       .  A
C572        H576   1.082       .  S
C579        N585   1.346       .  A
C579        C584   1.382       .  A
C579        C580   1.403       .  A
C580        C581   1.405       .  A
C580        H591   1.082       .  S
C581        C590   1.375       .  A
C581        C582   1.385       .  A
C582        N588   1.346       .  A
C582        C583   1.402       .  A
C583        C584   1.403       .  A
C583        H592   1.082       .  S
C584        C587   1.375       .  A
N585        C586   1.357       .  A
N585        H595   1.045       .  S
C586        C587   1.398       .  A
C587        H593   1.083       .  S
N588        C589   1.354       .  A
N588        H596   1.044       .  S
C589        C590   1.398       .  A
C590        H594   1.083       .  S
N597        C602   1.357       .  A
N597        C601   1.357       .  A
N597        H629   1.038   1_556  S
N598        C605   1.357       .  A
N598        C606   1.357       .  A
N599        C604   1.358       .  A
N599        C603   1.359       .  A
N599        H630   1.037       .  S
N600        C607   1.358       .  A
N600        C608   1.355   1_556  A
C601        C609   1.389       .  A
C601        C617   1.422   1_556  A
C602        C618   1.418       .  A
C602        C610   1.386       .  A
C603        C611   1.389       .  A
C603        C620   1.424       .  A
C604        C619   1.423       .  A
C604        C612   1.388       .  A
C605        C617   1.425       .  A
C605        C613   1.387       .  A
C606        C620   1.424       .  A
C606        C614   1.386       .  A
C607        C615   1.386   1_556  A
C607        C618   1.424       .  A
C608        C616   1.387       .  A
C608        C619   1.423       .  A
C609        C610   1.375       .  A
C609        H621   1.081       .  S
C610        H622   1.082       .  S
C611        C612   1.371       .  A
C611        H623   1.082       .  S
C612        H624   1.083   1_554  S
C613        C614   1.379       .  A
C613        H625   1.082       .  S
C614        H626   1.082       .  S
C615        C616   1.381       .  A
C615        H627   1.082       .  S
C616        H628   1.082       .  S
C617        C675   1.497       .  S
C618        C764   1.498       .  S
C619        C738   1.491   1_554  S
C620        C701   1.496       .  S
N631        C636   1.358       .  A
N631        H663   1.036   1_556  S
N632        C639   1.359   1_455  A
N632        C640   1.358   1_556  A
N633        C638   1.359       .  A
N633        H664   1.038       .  S
N634        C641   1.359   1_455  A
N634        C642   1.357       .  A
C635        C643   1.387       .  A
C635        C651   1.419       .  A
C636        C652   1.424       .  A
C636        C644   1.390       .  A
C637        C645   1.388       .  A
C637        C654   1.426       .  A
C638        C653   1.426       .  A
C638        C646   1.389       .  A
C639        C651   1.427       .  A
C639        C647   1.386       .  A
C640        C654   1.427       .  A
C640        C648   1.386       .  A
C641        C649   1.388       .  A
C641        C652   1.430   1_554  A
C642        C650   1.386       .  A
C642        C653   1.424       .  A
C643        H655   1.082       .  S
C644        H656   1.081       .  S
C645        H657   1.082       .  S
C646        H658   1.082       .  S
C647        C648   1.382   1_656  A
C647        H659   1.082       .  S
C648        H660   1.082       .  S
C649        C650   1.379   1_655  A
C649        H661   1.082       .  S
C650        H662   1.083       .  S
C651        C727   1.496       .  S
C652        C712   1.501   1_556  S
C653        C686   1.493       .  S
C654        C753   1.505   1_554  S
O665       Ni671   1.914       .  S
O665        C686   1.261   1_556  A
O666       Ni689   1.934       .  S
O666        C675   1.274   1_556  A
O667       Ni671   1.889   1_554  S
O667       Ni689   1.912   1_554  S
O667       Ni683   1.921       .  S
O667        H690   0.966       .  S
C668       C1182   1.473       .  S
C668        O685   1.281       .  A
C668        O677   1.279       .  A
O669       Ni688   1.932       .  S
O669        C675   1.270       .  A
O670       Ni688   1.900       .  S
O670        C672   1.270       .  A
Ni671       O674   1.917       .  S
Ni671       O676   1.879       .  S
C672       C1149   1.481       .  S
C672        O682   1.277       .  A
O673       Ni689   1.935       .  S
O673        C679   1.284       .  A
O674        C679   1.279       .  A
O676        C678   1.262       .  A
O677       Ni688   1.919       .  S
C678       C1167   1.465       .  S
C678        O684   1.272       .  A
C679       C1128   1.476       .  S
H680        O681   0.966       .  S
O681       Ni689   1.925   1_554  S
O681       Ni683   1.918       .  S
O681       Ni688   1.889       .  S
O682       Ni683   1.947       .  S
Ni683       O687   1.951       .  S
Ni683       O685   1.928       .  S
O684       Ni689   1.939       .  S
C686        O687   1.277       .  A
O691       Ni697   1.921       .  S
O691        C712   1.265       .  A
O692       Ni715   1.949       .  S
O692        C701   1.276       .  A
O693       Ni697   1.899       .  S
O693       Ni715   1.923       .  S
O693       Ni709   1.928   1_554  S
O693        H716   0.967       .  S
C694       C1110   1.470       .  S
C694        O711   1.284       .  A
C694        O703   1.278       .  A
O695       Ni714   1.917       .  S
O695        C701   1.262   1_556  A
O696       Ni714   1.884       .  S
O696        C698   1.264       .  A
Ni697       O700   1.918       .  S
Ni697       O702   1.889       .  S
C698       C1074   1.473       .  S
C698        O708   1.273       .  A
O699       Ni715   1.926       .  S
O699        C705   1.280       .  A
O700        C705   1.277       .  A
O702        C704   1.267       .  A
O703       Ni714   1.913       .  S
C704       C1095   1.475       .  S
C704        O710   1.276       .  A
C705       C1059   1.473       .  S
H706        O707   0.968   1_554  S
O707       Ni715   1.917   1_556  S
O707       Ni709   1.916       .  S
O707       Ni714   1.894       .  S
O708       Ni709   1.944       .  S
Ni709       O713   1.945       .  S
Ni709       O711   1.931       .  S
O710       Ni715   1.943       .  S
C712        O713   1.277   1_554  A
O717       Ni723   1.939       .  S
O717        C738   1.273       .  A
O718       Ni741   1.936       .  S
O718        C727   1.277       .  A
O719       Ni723   1.890       .  S
O719       Ni741   1.906       .  S
O719       Ni735   1.911   1_556  S
O719        H742   0.965       .  S
C720       C1002   1.462       .  S
C720        O737   1.278       .  A
C720        O729   1.278       .  A
O721       Ni740   1.934       .  S
O721        C727   1.273   1_554  A
O722       Ni740   1.913       .  S
O722        C724   1.271       .  A
Ni723       O726   1.923       .  S
Ni723       O728   1.902       .  S
C724       C1041   1.475       .  S
C724        O734   1.275       .  A
O725       Ni741   1.916       .  S
O725        C731   1.280       .  A
O726        C731   1.280       .  A
O728        C730   1.270       .  A
O729       Ni740   1.925       .  S
C730        C984   1.469       .  S
C730        O736   1.275       .  A
C731       C1023   1.465       .  S
H732        O733   0.966   1_556  S
O733       Ni741   1.914   1_554  S
O733       Ni735   1.899       .  S
O733       Ni740   1.888       .  S
O734       Ni735   1.940       .  S
Ni735       O739   1.923       .  S
Ni735       O737   1.921       .  S
O736       Ni741   1.937       .  S
C738        O739   1.273   1_556  A
O743       Ni749   1.933       .  S
O743        C764   1.270   1_554  A
O744       Ni767   1.934       .  S
O744        C753   1.276   1_554  A
O745       Ni749   1.897       .  S
O745       Ni767   1.908       .  S
O745       Ni761   1.917   1_554  S
O745        H768   0.956   1_554  S
C746        C933   1.461       .  S
C746        O763   1.280       .  A
C746        O755   1.279       .  A
O747       Ni766   1.948       .  S
O747        C753   1.275       .  A
O748       Ni766   1.915       .  S
O748        C750   1.273       .  A
Ni749       O752   1.931       .  S
Ni749       O754   1.903       .  S
C750        C969   1.478       .  S
C750        O760   1.275       .  A
O751       Ni767   1.911       .  S
O751        C757   1.276       .  A
O752        C757   1.280       .  A
O754        C756   1.268       .  A
O755       Ni766   1.923       .  S
C756        C915   1.473       .  S
C756        O762   1.278       .  A
C757        C951   1.465       .  S
H758        O759   0.972       .  S
O759       Ni767   1.904   1_556  S
O759       Ni761   1.914       .  S
O759       Ni766   1.898       .  S
O760       Ni761   1.943       .  S
Ni761       O765   1.943       .  S
Ni761       O763   1.914       .  S
O762       Ni767   1.946       .  S
C764        O765   1.277       .  A
N769        C774   1.353   1_655  A
N769        C773   1.352       .  A
N769        H801   1.038       .  S
N770        C777   1.348       .  A
N770        C778   1.349       .  A
N771        C776   1.349   1_655  A
N771        C775   1.349       .  A
N771        H802   1.039       .  S
N772        C779   1.348       .  A
N772        C780   1.348       .  A
C773        C781   1.387       .  A
C773        C789   1.414       .  A
C774        C790   1.412       .  A
C774        C782   1.383       .  A
C775        C783   1.385       .  A
C775        C792   1.407       .  A
C776        C791   1.412       .  A
C776        C784   1.389       .  A
C777        C789   1.408       .  A
C777        C785   1.386       .  A
C778        C792   1.406       .  A
C778        C786   1.385       .  A
C779        C787   1.386       .  A
C779        C790   1.407       .  A
C780        C788   1.386       .  A
C780        C791   1.408       .  A
C781        C782   1.368   1_655  A
C781        H793   1.077       .  S
C782        H794   1.081       .  S
C783        C784   1.373   1_655  A
C783        H795   1.083       .  S
C784        H796   1.081       .  S
C785        C786   1.382       .  A
C785        H797   1.082       .  S
C786        H798   1.082       .  S
C787        C788   1.382       .  A
C787        H799   1.082       .  S
C788        H800   1.082       .  S
C789       C1092   1.481       .  S
C790       C1185   1.483       .  S
C791       C1164   1.482       .  S
C792       C1113   1.481       .  S
N803        C808   1.355   1_455  A
N803        C807   1.356       .  A
N803        H835   1.038       .  S
N804        C811   1.355       .  A
N804        C812   1.352       .  A
N805        C810   1.356       .  A
N805        C809   1.353   1_655  A
N805        H836   1.039       .  S
N806        C813   1.350       .  A
N806        C814   1.354       .  A
C807        C815   1.386       .  A
C807        C823   1.418       .  A
C808        C824   1.421       .  A
C808        C816   1.391       .  A
C809        C817   1.391       .  A
C809        C826   1.418       .  A
C810        C825   1.415       .  A
C810        C818   1.385       .  A
C811        C823   1.416       .  A
C811        C819   1.384       .  A
C812        C826   1.416       .  A
C812        C820   1.386       .  A
C813        C821   1.387       .  A
C813        C824   1.414       .  A
C814        C822   1.383       .  A
C814        C825   1.412       .  A
C815        C816   1.367   1_455  A
C815        H827   1.081       .  S
C816        H828   1.079       .  S
C817        C818   1.366   1_455  A
C817        H829   1.080       .  S
C818        H830   1.082       .  S
C819        C820   1.380       .  A
C819        H831   1.082       .  S
C820        H832   1.082       .  S
C821        C822   1.377       .  A
C821        H833   1.082       .  S
C822        H834   1.082       .  S
C823        C966   1.495       .  S
C824       C1020   1.481       .  S
C825       C1038   1.492       .  S
C826        C948   1.481       .  S
N837        C842   1.355       .  A
N837        C841   1.352       .  A
N837        H869   1.038       .  S
N838        C845   1.351       .  A
N838        C846   1.353       .  A
N839        C844   1.355       .  A
N839        C843   1.357       .  A
N839        H870   1.036       .  S
N840        C847   1.353       .  A
N840        C848   1.350       .  A
C841        C849   1.388       .  A
C841        C857   1.414       .  A
C842        C858   1.415       .  A
C842        C850   1.388       .  A
C843        C851   1.386       .  A
C843        C860   1.419       .  A
C844        C859   1.425       .  A
C844        C852   1.391       .  A
C845        C857   1.412       .  A
C845        C853   1.385       .  A
C846        C860   1.412       .  A
C846        C854   1.384       .  A
C847        C855   1.383       .  A
C847        C858   1.411       .  A
C848        C856   1.387       .  A
C848        C859   1.414       .  A
C849        C850   1.368       .  A
C849        H861   1.082       .  S
C850        H862   1.081       .  S
C851        C852   1.366       .  A
C851        H863   1.081       .  S
C852        H864   1.079       .  S
C853        C854   1.376       .  A
C853        H865   1.082       .  S
C854        H866   1.082       .  S
C855        C856   1.374       .  A
C855        H867   1.082       .  S
C856        H868   1.082       .  S
C857       C1005   1.477       .  S
C858        C912   1.486       .  S
C859        C930   1.483       .  S
C860        C987   1.489       .  S
N871        C876   1.353       .  A
N871        C875   1.354       .  A
N871        H903   1.038       .  S
N872        C879   1.347       .  A
N872        C880   1.349       .  A
N873        C878   1.348       .  A
N873        C877   1.346       .  A
N873        H904   1.041       .  S
N874        C881   1.348       .  A
N874        C882   1.352       .  A
C875        C883   1.385       .  A
C875        C891   1.415       .  A
C876        C892   1.416       .  A
C876        C884   1.386       .  A
C877        C885   1.389       .  A
C877        C894   1.405       .  A
C878        C893   1.405       .  A
C878        C886   1.384       .  A
C879        C891   1.408       .  A
C879        C887   1.386       .  A
C880        C894   1.404       .  A
C880        C888   1.383       .  A
C881        C889   1.387       .  A
C881        C892   1.412       .  A
C882        C890   1.385       .  A
C882        C893   1.413       .  A
C883        C884   1.371       .  A
C883        H895   1.082       .  S
C884        H896   1.077       .  S
C885        C886   1.375       .  A
C885        H897   1.082       .  S
C886        H898   1.082       .  S
C887        C888   1.381       .  A
C887        H899   1.082       .  S
C888        H900   1.082       .  S
C889        C890   1.382       .  A
C889        H901   1.082       .  S
C890        H902   1.082       .  S
C891       C1056   1.484       .  S
C892       C1146   1.480       .  S
C893       C1131   1.487       .  S
C894       C1077   1.477       .  S
C905        N911   1.343       .  A
C905        C910   1.384       .  A
C905        C906   1.409       .  A
C906        C907   1.405       .  A
C906        H917   1.082       .  S
C907        C916   1.389       .  A
C907        C908   1.383       .  A
C908        N914   1.338       .  A
C908        C909   1.402       .  A
C909        C910   1.400       .  A
C909        H918   1.083       .  S
C910        C913   1.379       .  A
N911        C912   1.358       .  A
N911        H921   1.042       .  S
C912        C913   1.394       .  A
C913        H919   1.083       .  S
N914        C915   1.356       .  A
N914        H922   1.045       .  S
C915        C916   1.397       .  A
C916        H920   1.082       .  S
C923        N929   1.344       .  A
C923        C928   1.384       .  A
C923        C924   1.403       .  A
C924        C925   1.400       .  A
C924        H935   1.076       .  S
C925        C934   1.377       .  A
C925        C926   1.382       .  A
C926        N932   1.340       .  A
C926        C927   1.400       .  A
C927        C928   1.400       .  A
C927        H936   1.082       .  S
C928        C931   1.372       .  A
N929        C930   1.354       .  A
N929        H939   1.043       .  S
C930        C931   1.395       .  A
C931        H937   1.083       .  S
N932        C933   1.354       .  A
N932        H940   1.045       .  S
C933        C934   1.397       .  A
C934        H938   1.083       .  S
C941        N947   1.342       .  A
C941        C946   1.382       .  A
C941        C942   1.405       .  A
C942        C943   1.401       .  A
C942        H953   1.077       .  S
C943        C952   1.383       .  A
C943        C944   1.382       .  A
C944        N950   1.337       .  A
C944        C945   1.402       .  A
C945        C946   1.400       .  A
C945        H954   1.082       .  S
C946        C949   1.377       .  A
N947        C948   1.355       .  A
N947        H957   1.040       .  S
C948        C949   1.397       .  A
C949        H955   1.082       .  S
N950        C951   1.356       .  A
N950        H958   1.045       .  S
C951        C952   1.396       .  A
C952        H956   1.083       .  S
C959        N965   1.347       .  A
C959        C964   1.384       .  A
C959        C960   1.402       .  A
C960        C961   1.402       .  A
C960        H971   1.082       .  S
C961        C970   1.372       .  A
C961        C962   1.384       .  A
C962        N968   1.356       .  A
C962        C963   1.410       .  A
C963        C964   1.414       .  A
C963        H972   1.083       .  S
C964        C967   1.381       .  A
N965        C966   1.355       .  A
N965        H975   1.045       .  S
C966        C967   1.399       .  A
C967        H973   1.073       .  S
N968        C969   1.360       .  A
N968        H976   1.044       .  S
C969        C970   1.392       .  A
C970        H974   1.083       .  S
C977        N983   1.339       .  A
C977        C982   1.384       .  A
C977        C978   1.403       .  A
C978        C979   1.401       .  A
C978        H989   1.083       .  S
C979        C988   1.383       .  A
C979        C980   1.384       .  A
C980        N986   1.342       .  A
C980        C981   1.409       .  A
C981        C982   1.404       .  A
C981        H990   1.082       .  S
C982        C985   1.388       .  A
N983        C984   1.355       .  A
N983        H993   1.045       .  S
C984        C985   1.395       .  A
C985        H991   1.082       .  S
N986        C987   1.353       .  A
N986        H994   1.036       .  S
C987        C988   1.396       .  A
C988        H992   1.082       .  S
C995       N1001   1.337       .  A
C995       C1000   1.383       .  A
C995        C996   1.401       .  A
C996        C997   1.399       .  A
C996       H1007   1.083       .  S
C997       C1006   1.376       .  A
C997        C998   1.384       .  A
C998       N1004   1.342       .  A
C998        C999   1.406       .  A
C999       C1000   1.402       .  A
C999       H1008   1.082       .  S
C1000      C1003   1.383       .  A
N1001      C1002   1.354       .  A
N1001      H1011   1.045       .  S
C1002      C1003   1.397       .  A
C1003      H1009   1.082       .  S
N1004      C1005   1.356       .  A
N1004      H1012   1.043       .  S
C1005      C1006   1.393       .  A
C1006      H1010   1.082       .  S
C1013      N1019   1.340       .  A
C1013      C1018   1.384       .  A
C1013      C1014   1.400       .  A
C1014      C1015   1.398       .  A
C1014      H1025   1.079       .  S
C1015      C1024   1.377       .  A
C1015      C1016   1.382       .  A
C1016      N1022   1.342       .  A
C1016      C1017   1.405       .  A
C1017      C1018   1.404       .  A
C1017      H1026   1.082       .  S
C1018      C1021   1.379       .  A
N1019      C1020   1.350       .  A
N1019      H1029   1.041       .  S
C1020      C1021   1.399       .  A
C1021      H1027   1.083       .  S
N1022      C1023   1.358       .  A
N1022      H1030   1.045       .  S
C1023      C1024   1.395       .  A
C1024      H1028   1.083       .  S
C1031      N1037   1.346       .  A
C1031      C1036   1.384       .  A
C1031      C1032   1.402       .  A
C1032      C1033   1.402       .  A
C1032      H1043   1.083       .  S
C1033      C1042   1.372       .  A
C1033      C1034   1.384       .  A
C1034      N1040   1.351       .  A
C1034      C1035   1.406       .  A
C1035      C1036   1.409       .  A
C1035      H1044   1.083       .  S
C1036      C1039   1.377       .  A
N1037      C1038   1.355       .  A
N1037      H1047   1.045       .  S
C1038      C1039   1.400       .  A
C1039      H1045   1.075       .  S
N1040      C1041   1.357       .  A
N1040      H1048   1.044       .  S
C1041      C1042   1.394       .  A
C1042      H1046   1.083       .  S
C1049      N1055   1.348       .  A
C1049      C1054   1.384       .  A
C1049      C1050   1.406       .  A
C1050      C1051   1.407       .  A
C1050      H1061   1.082       .  S
C1051      C1060   1.377       .  A
C1051      C1052   1.384       .  A
C1052      N1058   1.343       .  A
C1052      C1053   1.398       .  A
C1053      C1054   1.399       .  A
C1053      H1062   1.082       .  S
C1054      C1057   1.369       .  A
N1055      C1056   1.357       .  A
N1055      H1065   1.044       .  S
C1056      C1057   1.394       .  A
C1057      H1063   1.083       .  S
N1058      C1059   1.354       .  A
N1058      H1066   1.045       .  S
C1059      C1060   1.399       .  A
C1060      H1064   1.082       .  S
C1067      N1073   1.351       .  A
C1067      C1072   1.383       .  A
C1067      C1068   1.412       .  A
C1068      C1069   1.411       .  A
C1068      H1079   1.082       .  S
C1069      C1078   1.387       .  A
C1069      C1070   1.383       .  A
C1070      N1076   1.331       .  A
C1070      C1071   1.392       .  A
C1071      C1072   1.391       .  A
C1071      H1080   1.083       .  S
C1072      C1075   1.363       .  A
N1073      C1074   1.361       .  A
N1073      H1083   1.045       .  S
C1074      C1075   1.393       .  A
C1075      H1081   1.083       .  S
N1076      C1077   1.352       .  A
N1076      H1084   1.045       .  S
C1077      C1078   1.401       .  A
C1078      H1082   1.082       .  S
C1085      N1091   1.333       .  A
C1085      C1090   1.384       .  A
C1085      C1086   1.394       .  A
C1086      C1087   1.393       .  A
C1086      H1097   1.083       .  S
C1087      C1096   1.366       .  A
C1087      C1088   1.382       .  A
C1088      N1094   1.351       .  A
C1088      C1089   1.413       .  A
C1089      C1090   1.412       .  A
C1089      H1098   1.082       .  S
C1090      C1093   1.391       .  A
N1091      C1092   1.351       .  A
N1091      H1101   1.045       .  S
C1092      C1093   1.401       .  A
C1093      H1099   1.082       .  S
N1094      C1095   1.361       .  A
N1094      H1102   1.044       .  S
C1095      C1096   1.394       .  A
C1096      H1100   1.083       .  S
C1103      N1109   1.345       .  A
C1103      C1108   1.384       .  A
C1103      C1104   1.400       .  A
C1104      C1105   1.401       .  A
C1104      H1115   1.082       .  S
C1105      C1114   1.369       .  A
C1105      C1106   1.385       .  A
C1106      N1112   1.347       .  A
C1106      C1107   1.402       .  A
C1107      C1108   1.403       .  A
C1107      H1116   1.082       .  S
C1108      C1111   1.372       .  A
N1109      C1110   1.355       .  A
N1109      H1119   1.045       .  S
C1110      C1111   1.398       .  A
C1111      H1117   1.083       .  S
N1112      C1113   1.355       .  A
N1112      H1120   1.044       .  S
C1113      C1114   1.396       .  A
C1114      H1118   1.083       .  S
C1121      N1127   1.339       .  A
C1121      C1126   1.383       .  A
C1121      C1122   1.403       .  A
C1122      C1123   1.400       .  A
C1122      H1133   1.082       .  S
C1123      C1132   1.381       .  A
C1123      C1124   1.382       .  A
C1124      N1130   1.343       .  A
C1124      C1125   1.408       .  A
C1125      C1126   1.406       .  A
C1125      H1134   1.082       .  S
C1126      C1129   1.386       .  A
N1127      C1128   1.357       .  A
N1127      H1137   1.045       .  S
C1128      C1129   1.399       .  A
C1129      H1135   1.082       .  S
N1130      C1131   1.360       .  A
N1130      H1138   1.045       .  S
C1131      C1132   1.392       .  A
C1132      H1136   1.082       .  S
C1139      N1145   1.350       .  A
C1139      C1144   1.383       .  A
C1139      C1140   1.416       .  A
C1140      C1141   1.414       .  A
C1140      H1151   1.082       .  S
C1141      C1150   1.395       .  A
C1141      C1142   1.383       .  A
C1142      N1148   1.334       .  A
C1142      C1143   1.396       .  A
C1143      C1144   1.393       .  A
C1143      H1152   1.083       .  S
C1144      C1147   1.370       .  A
N1145      C1146   1.361       .  A
N1145      H1155   1.044       .  S
C1146      C1147   1.389       .  A
C1147      H1153   1.083       .  S
N1148      C1149   1.354       .  A
N1148      H1156   1.045       .  S
C1149      C1150   1.405       .  A
C1150      H1154   1.082       .  S
C1157      N1163   1.349       .  A
C1157      C1162   1.384       .  A
C1157      C1158   1.410       .  A
C1158      C1159   1.410       .  A
C1158      H1169   1.082       .  S
C1159      C1168   1.387       .  A
C1159      C1160   1.384       .  A
C1160      N1166   1.334       .  A
C1160      C1161   1.394       .  A
C1161      C1162   1.392       .  A
C1161      H1170   1.083       .  S
C1162      C1165   1.364       .  A
N1163      C1164   1.359       .  A
N1163      H1173   1.044       .  S
C1164      C1165   1.392       .  A
C1165      H1171   1.083       .  S
N1166      C1167   1.353       .  A
N1166      H1174   1.045       .  S
C1167      C1168   1.400       .  A
C1168      H1172   1.082       .  S
C1175      N1181   1.346       .  A
C1175      C1180   1.382       .  A
C1175      C1176   1.403       .  A
C1176      C1177   1.405       .  A
C1176      H1187   1.082       .  S
C1177      C1186   1.375       .  A
C1177      C1178   1.385       .  A
C1178      N1184   1.346       .  A
C1178      C1179   1.403       .  A
C1179      C1180   1.404       .  A
C1179      H1188   1.082       .  S
C1180      C1183   1.376       .  A
N1181      C1182   1.357       .  A
N1181      H1191   1.045       .  S
C1182      C1183   1.398       .  A
C1183      H1189   1.083       .  S
N1184      C1185   1.354       .  A
N1184      H1192   1.045       .  S
C1185      C1186   1.398       .  A
C1186      H1190   1.083       .  S
