geometry optimzed in LAMMPS
_audit_creation_date              2020-11-30 
_audit_creation_method            'lammps2cif' 
_symmetry_space_group_name_H-M    'P1' 
_symmetry_Int_Tables_number       1 
_symmetry_cell_setting            triclinic 
loop_ 
_symmetry_equiv_pos_as_xyz 
  x,y,z 
_cell_length_a                    21.49755847 
_cell_length_b                    35.70731420426116 
_cell_length_c                    53.0989431533866 
_cell_angle_alpha                 92.4289956527389 
_cell_angle_beta                  91.74575331838844 
_cell_angle_gamma                 90.61258004639849 
loop_ 
_atom_site_label 
_atom_site_type_symbol 
_atom_site_fract_x 
_atom_site_fract_y 
_atom_site_fract_z 
_atom_site_charge 
C1          C  0.55163526  0.26238981  0.50072353     0.03400
C2          C  0.54485508  0.21549389  0.99810329     0.03300
C3          C  0.48556007  0.19684154  0.99799719    -0.17200
C4          C  0.42650199  0.21540008  0.99721576     0.03400
C5          C  0.43348455  0.26095216  0.49943726     0.03300
C6          C  0.49228724  0.28026614  0.50070481    -0.17200
H7          H  0.49189501  0.31066451  0.50121037     0.05400
H8          H  0.48537879  0.16650760  0.99845743     0.05400
C9          C  0.93037073  0.00802018  0.99360862     0.03400
C10         C  0.93126872  0.46566861  0.99760306     0.03300
C11         C  0.99109664  0.44743720  0.99717496    -0.17200
C12         C  0.05122197  0.46564511  0.99631929     0.03400
C13         C  0.04921793  0.00664112  0.99143856     0.03300
C14         C  0.99045002  0.02527980  0.99020750    -0.17200
H15         H  0.99202845  0.05508079  0.98714131     0.05400
H16         H  0.99101235  0.41717851  0.99739691     0.05400
Zn17       Zn  0.23605854  0.16442037  0.00748478     1.49700
Zn18       Zn  0.32308856  0.11115920  0.98352472     1.49400
Zn19       Zn  0.21932540  0.07225341  0.01525954     1.49100
Zn20       Zn  0.19124695  0.09577065  0.46767713     1.49500
O21         O  0.23782660  0.11142341  0.99258921    -1.83100
O22         O  0.32300824  0.19457357  0.01076965    -0.73700
O23         O  0.36634075  0.09556103  0.01512341    -0.73500
O24         O  0.18584035  0.10042466  0.04308040    -0.73000
O25         O  0.36798862  0.16184248  0.98052349    -0.73700
O26         O  0.19293534  0.16230764  0.04163160    -0.73300
O27         O  0.29933245  0.05511490  0.03053662    -0.73900
O28         O  0.12510116  0.05254913  0.47421078    -0.73300
O29         O  0.34357797  0.08719891  0.45221757    -0.74000
O30         O  0.15007075  0.03134264  0.00720984    -0.73400
O31         O  0.24643926  0.08903155  0.43584837    -0.73900
O32         O  0.13579346  0.13959577  0.46531237    -0.73800
O33         O  0.19420622  0.18926188  0.47755271    -0.73600
C34         C  0.36848752  0.19030228  0.99585027     0.78200
C35         C  0.34611175  0.07731779  0.03327219     0.78700
C36         C  0.17829445  0.13264523  0.05301145     0.77700
C37         C  0.10818503  0.03081667  0.98961568     0.78000
C38         C  0.30561990  0.08622521  0.43305318     0.79200
C39         C  0.15611990  0.17233157  0.46191159     0.78200
Zn40       Zn  0.68968503  0.13272340  0.02359091     1.49700
Zn41       Zn  0.73404242  0.05417805  0.99089068     1.49400
Zn42       Zn  0.70744017  0.14739721  0.47127752     1.49100
Zn43       Zn  0.82906217  0.11858527  0.00132287     1.49500
O44         O  0.73947667  0.11154247  0.99609045    -1.83100
O45         O  0.63729487  0.08759469  0.02426616    -0.73700
O46         O  0.69803417  0.05226890  0.45703334    -0.73500
O47         O  0.63565350  0.18687990  0.47851985    -0.73000
O48         O  0.69360353  0.03718348  0.02327294    -0.73700
O49         O  0.62608531  0.17810480  0.01864318    -0.73300
O50         O  0.67264234  0.11028274  0.44622679    -0.73900
O51         O  0.86560493  0.15118335  0.47029941    -0.73300
O52         O  0.81820998  0.02362148  0.99030650    -0.74000
O53         O  0.77548338  0.16780841  0.45162323    -0.73400
O54         O  0.88406103  0.07004891  0.99857225    -0.73900
O55         O  0.84336230  0.13848292  0.03756475    -0.73800
O56         O  0.74969593  0.13880356  0.05451789    -0.73600
C57         C  0.66190737  0.06098417  0.03578265     0.78200
C58         C  0.67636194  0.07533571  0.44109647     0.78700
C59         C  0.60312038  0.19061681  0.99808269     0.77700
C60         C  0.83429020  0.16354699  0.45164356     0.78000
C61         C  0.87434021  0.03484385  0.99424096     0.79200
C62         C  0.80930999  0.14107457  0.05687618     0.78200
Zn63       Zn  0.69568796  0.33791074  0.47186453     1.49700
Zn64       Zn  0.69670041  0.33629436  0.02520798     1.49400
Zn65       Zn  0.83186802  0.36114639  0.49501914     1.49100
Zn66       Zn  0.73262536  0.42515979  0.49857174     1.49500
O67         O  0.74137504  0.36879314  0.49800245    -1.83100
O68         O  0.63262203  0.29534817  0.47961793    -0.73700
O69         O  0.76485330  0.31147738  0.04295913    -0.73500
O70         O  0.84622167  0.34039822  0.45877910    -0.73000
O71         O  0.62270974  0.29728598  0.01813137    -0.73700
O72         O  0.75270518  0.31880762  0.44613109    -0.73300
O73         O  0.85416064  0.32080993  0.02389339    -0.73900
O74         O  0.81932855  0.45724322  0.49660373    -0.73300
O75         O  0.67389513  0.37556347  0.05106282    -0.74000
O76         O  0.88476248  0.41055812  0.49823572    -0.73400
O77         O  0.69678934  0.43146538  0.03589122    -0.73900
O78         O  0.67384197  0.43328865  0.46629550    -0.73800
O79         O  0.64980761  0.37439877  0.45271210    -0.73600
C80         C  0.60858683  0.28789660  0.50046873     0.78200
C81         C  0.82333372  0.30819204  0.04210489     0.78700
C82         C  0.80925540  0.32575554  0.44167685     0.77700
C83         C  0.87590999  0.44596656  0.49782135     0.78000
C84         C  0.67949070  0.41103299  0.05391284     0.79200
C85         C  0.64601295  0.40952513  0.45059231     0.78200
Zn86       Zn  0.29456780  0.34217876  0.02052776     1.49700
Zn87       Zn  0.25584003  0.42698294  0.49374325     1.49400
Zn88       Zn  0.28451244  0.33949449  0.47020353     1.49100
Zn89       Zn  0.15973405  0.36381049  0.50277063     1.49500
O90         O  0.24841833  0.37025490  0.49699743    -1.85500
O91         O  0.35971079  0.38100604  0.02243045    -0.73700
O92         O  0.29296528  0.43302897  0.45709916    -0.73500
O93         O  0.35133725  0.29621522  0.47774509    -0.73000
O94         O  0.30540163  0.43244667  0.02444419    -0.73700
O95         O  0.34497706  0.29226862  0.01592893    -0.73300
O96         O  0.32193764  0.37438581  0.44663293    -0.73900
O97         O  0.12444364  0.33799309  0.47024579    -0.73300
O98         O  0.16810183  0.45759227  0.49440291    -0.74000
O99         O  0.21046959  0.32480369  0.44891045    -0.73400
O100        O  0.10524805  0.41128743  0.50283742    -0.73900
O101        O  0.14504192  0.34413307  0.03781816    -0.73800
O102        O  0.24434482  0.34656355  0.05206806    -0.73600
C103        C  0.34256993  0.40953539  0.03512178     0.78200
C104        C  0.31434611  0.40846986  0.44113743     0.78700
C105        C  0.37556227  0.28587541  0.49872031     0.77700
C106        C  0.15180383  0.32945368  0.44969161     0.78000
C107        C  0.11267354  0.44592924  0.49866299     0.79200
C108        C  0.18594935  0.34717787  0.05591380     0.78200
C109        C  0.01854735  0.37275172  0.22400002     0.03400
C110        C  0.96622392  0.34823211  0.21931606     0.03300
C111        C  0.92875075  0.33983992  0.23972229    -0.17200
C112        C  0.94787293  0.34974488  0.26470924     0.03400
C113        C  0.00671584  0.36741587  0.26945969     0.03300
C114        C  0.03966804  0.38069381  0.24914936    -0.17200
H115        H  0.08283157  0.39612486  0.25292941     0.05400
H116        H  0.88524594  0.32489738  0.23609755     0.05400
C117        C  0.99970349  0.14782848  0.23365453     0.03400
C118        C  0.06559073  0.14452971  0.23374179     0.03300
C119        C  0.09956565  0.14158159  0.25658733    -0.17200
C120        C  0.06961285  0.14464478  0.27964754     0.03400
C121        C  0.00394523  0.14824271  0.27928986     0.03300
C122        C  0.96974120  0.14920964  0.25653187    -0.17200
H123        H  0.91959768  0.15201289  0.25669478     0.05400
H124        H  0.14916483  0.13695277  0.25634193     0.05400
C125        C  0.48404669  0.11038460  0.21348958     0.03400
C126        C  0.54806542  0.10075121  0.21435929     0.03300
C127        C  0.57848807  0.09493404  0.23777512    -0.17200
C128        C  0.54660079  0.09849037  0.26041955     0.03400
C129        C  0.48152780  0.10473364  0.25915279     0.03300
C130        C  0.45139408  0.11157647  0.23596836    -0.17200
H131        H  0.40177927  0.11674049  0.23534068     0.05400
H132        H  0.62740721  0.08785814  0.23832724     0.05400
C133        C  0.46779833  0.37369905  0.21868856     0.03400
C134        C  0.53402021  0.37425856  0.22216954     0.03300
C135        C  0.56014260  0.37224277  0.24685809    -0.17200
C136        C  0.52276433  0.37318814  0.26826199     0.03400
C137        C  0.45718412  0.37408182  0.26474142     0.03300
C138        C  0.43064509  0.37385742  0.24015465    -0.17200
H139        H  0.38060580  0.37609695  0.23782956     0.05400
H140        H  0.61030572  0.37299635  0.24952619     0.05400
C141        C  0.38119254  0.35658845  0.15450929    -0.10800
C142        C  0.38892930  0.39167881  0.14372956     0.11800
C143        C  0.41350664  0.42183637  0.15947557    -0.02600
C144        C  0.43969488  0.41444906  0.18340590    -0.05300
C145        C  0.43657718  0.37884431  0.19336381    -0.16100
C146        C  0.40208624  0.35013335  0.17957626     0.02800
C147        C  0.37625534  0.39559778  0.11570806     0.12700
C148        C  0.41959029  0.95940311  0.15859916     0.63400
H149        H  0.47116605  0.93214871  0.20090762     0.12800
C150        C  0.38568224  0.31342831  0.19141598     0.55500
H151        H  0.35800763  0.33438632  0.14318287     0.08600
C152        C  0.41526509  0.37888339  0.09738795    -0.05200
C153        C  0.40475606  0.38620135  0.07166837    -0.06000
C154        C  0.35743801  0.41021078  0.06315995    -0.15600
C155        C  0.31974769  0.42778162  0.08157369    -0.01100
C156        C  0.32791753  0.41870672  0.10723156    -0.08700
C157        C  0.46632948  0.35186907  0.10459186     0.65600
H158        H  0.43302917  0.37203302  0.05778050     0.11000
C159        C  0.27147445  0.45635495  0.07446682     0.64000
H160        H  0.29597854  0.42965716  0.12092276     0.08400
F161        F  0.35848474  0.28789423  0.17395519    -0.19100
F162        F  0.34395405  0.32015368  0.21031915    -0.15300
F163        F  0.43802118  0.29721715  0.20170246    -0.18800
F164        F  0.35896913  0.97123021  0.15972477    -0.22200
F165        F  0.44088766  0.96300638  0.13457139    -0.23700
F166        F  0.45483652  0.98252058  0.17516786    -0.17600
F167        F  0.22405857  0.43930711  0.05993671    -0.20100
F168        F  0.29841457  0.48405637  0.06092308    -0.21300
F169        F  0.24656701  0.47350380  0.09560923    -0.18500
F170        F  0.50682281  0.34527277  0.08515550    -0.18600
F171        F  0.43995088  0.31797261  0.11043888    -0.22400
F172        F  0.50090810  0.36620848  0.12515488    -0.24000
C173        C  0.39278878  0.36162933  0.32935581    -0.10800
C174        C  0.37384799  0.39837844  0.33574508     0.11800
C175        C  0.36587595  0.42352690  0.31605663    -0.02600
C176        C  0.39164595  0.41461704  0.29241973    -0.05300
C177        C  0.41699297  0.37918486  0.28705581    -0.16100
C178        C  0.40979271  0.35095765  0.30468792     0.02800
C179        C  0.35121297  0.40688590  0.36182186     0.12700
C180        C  0.32613194  0.45785012  0.31969993     0.63400
H181        H  0.39200032  0.43510974  0.27797277     0.12800
C182        C  0.41244755  0.30939883  0.29742944     0.55500
H183        H  0.38983673  0.34050129  0.34332771     0.08600
C184        C  0.30025175  0.38701739  0.37102467    -0.05200
C185        C  0.28819762  0.39026656  0.39688077    -0.06000
C186        C  0.32131703  0.41535320  0.41367364    -0.15600
C187        C  0.36410053  0.44055406  0.40351792    -0.01100
C188        C  0.38140358  0.43437447  0.37801244    -0.08700
C189        C  0.25573160  0.36292641  0.35442198     0.65600
H190        H  0.25217235  0.37255463  0.40416743     0.11000
C191        C  0.38879169  0.47421283  0.41908975     0.64000
H192        H  0.41881990  0.45079612  0.37064531     0.08400
F193        F  0.35238861  0.29502589  0.29629355    -0.19100
F194        F  0.44639661  0.29064452  0.31536328    -0.15300
F195        F  0.43838673  0.30223542  0.27422986    -0.18800
F196        F  0.36525640  0.97555176  0.33809068    -0.22200
F197        F  0.26864006  0.44752612  0.32832894    -0.23700
F198        F  0.31457548  0.96504100  0.30058005    -0.17600
F199        F  0.42244092  0.46295317  0.43992559    -0.20100
F200        F  0.33930022  0.49560883  0.42707010    -0.21300
F201        F  0.45801762  0.96906602  0.41672033    -0.18500
F202        F  0.19689834  0.37645547  0.35764867    -0.18600
F203        F  0.25842506  0.32626560  0.36163276    -0.22400
F204        F  0.26608070  0.36346281  0.32891273    -0.24000
C205        C  0.05279601  0.40850184  0.15980723    -0.10800
C206        C  0.11444665  0.39655404  0.15686571     0.11800
C207        C  0.14931675  0.38823622  0.17910517    -0.02600
C208        C  0.11739578  0.38233815  0.20139224    -0.05300
C209        C  0.05312823  0.38837899  0.20277768    -0.16100
C210        C  0.02290003  0.40692698  0.18287811     0.02800
C211        C  0.13657687  0.38637261  0.13075651     0.12700
C212        C  0.21954613  0.38502701  0.18034651     0.63400
H213        H  0.14258173  0.37135528  0.21740873     0.12800
C214        C  0.96100001  0.42677089  0.18524367     0.55500
H215        H  0.02632517  0.41818105  0.14394759     0.08600
C216        C  0.12397055  0.40789754  0.10920573    -0.05200
C217        C  0.13516547  0.39182812  0.08509951    -0.06000
C218        C  0.16554762  0.35743884  0.08171328    -0.15600
C219        C  0.18177158  0.33693592  0.10301329    -0.01100
C220        C  0.16450250  0.35095731  0.12697138    -0.08700
C221        C  0.10088682  0.44806321  0.11057183     0.65600
H222        H  0.12297032  0.40737296  0.06859422     0.11000
C223        C  0.21503143  0.29978247  0.10031372     0.64000
H224        H  0.17261979  0.33395461  0.14304952     0.08400
F225        F  0.93578908  0.42407978  0.20873742    -0.19100
F226        F  0.91864235  0.41227373  0.16723925    -0.15300
F227        F  0.97001186  0.46444127  0.18119190    -0.18800
F228        F  0.24667458  0.39434853  0.15818378    -0.22200
F229        F  0.23555756  0.34880731  0.18581917    -0.23700
F230        F  0.24347671  0.40928632  0.19930814    -0.17600
F231        F  0.22198238  0.28275832  0.12315760    -0.20100
F232        F  0.27370998  0.30535931  0.09109149    -0.21300
F233        F  0.18129014  0.27573310  0.08383631    -0.18500
F234        F  0.12752199  0.46863290  0.09216307    -0.18600
F235        F  0.11609273  0.46586954  0.13362277    -0.22400
F236        F  0.03719906  0.44852648  0.10623967    -0.24000
C237        C  0.05331884  0.32946284  0.33196154    -0.10800
C238        C  0.06199540  0.36123260  0.34830611     0.11800
C239        C  0.06373912  0.39693923  0.33681120    -0.02600
C240        C  0.04456348  0.39900976  0.31101396    -0.05300
C241        C  0.03643082  0.36648763  0.29534907    -0.16100
C242        C  0.04956739  0.33183195  0.30580820     0.02800
C243        C  0.07839910  0.35322052  0.37565974     0.12700
C244        C  0.08876755  0.43299619  0.34963651     0.63400
H245        H  0.03855072  0.42608781  0.30284923     0.12800
C246        C  0.06818629  0.29752834  0.29045828     0.55500
H247        H  0.05545504  0.30178170  0.33942132     0.08600
C248        C  0.05257541  0.37074844  0.39765631    -0.05200
C249        C  0.07509504  0.36073796  0.42174547    -0.06000
C250        C  0.11782270  0.33159481  0.42495300    -0.15600
C251        C  0.13859785  0.31189923  0.40329709    -0.01100
C252        C  0.12071359  0.32383758  0.37943335    -0.08700
C253        C  0.00206570  0.39997720  0.39729590     0.65600
H254        H  0.05970445  0.37646367  0.43828535     0.11000
C255        C  0.18079637  0.27848794  0.40490917     0.64000
H256        H  0.14153328  0.31006344  0.36326503     0.08400
F257        F  0.03119826  0.26768984  0.29617965    -0.19100
F258        F  0.12914977  0.28977287  0.29704023    -0.15300
F259        F  0.06482677  0.30184251  0.26477551    -0.18800
F260        F  0.13382205  0.44806924  0.33485420    -0.22200
F261        F  0.11603974  0.42777619  0.37304635    -0.23700
F262        F  0.04124393  0.45855901  0.35206527    -0.17600
F263        F  0.16923511  0.25947207  0.42635368    -0.20100
F264        F  0.24246382  0.28988519  0.40543015    -0.21300
F265        F  0.17010104  0.25413413  0.38434450    -0.18500
F266        F  0.02657952  0.43448018  0.40548449    -0.18600
F267        F  0.95551321  0.39074766  0.41335730    -0.22400
F268        F  0.97510938  0.40269634  0.37373378    -0.24000
C269        C  0.54140384  0.40446995  0.39196584    -0.10800
C270        C  0.58516957  0.41335708  0.37387057     0.11800
C271        C  0.64278066  0.43033365  0.38250769    -0.02600
C272        C  0.65649118  0.43409010  0.40865123    -0.05300
C273        C  0.61628733  0.42044153  0.42644001    -0.16100
C274        C  0.55699034  0.40611776  0.41806686     0.02800
C275        C  0.57207828  0.40124974  0.34655288     0.12700
C276        C  0.69077734  0.44432695  0.36465021     0.63400
H277        H  0.70144292  0.44502606  0.41539885     0.12800
C278        C  0.51230299  0.38985845  0.43645740     0.55500
H279        H  0.49695270  0.39272651  0.38536900     0.08600
C280        C  0.56241277  0.36288868  0.33829232    -0.05200
C281        C  0.55224274  0.35408272  0.31219006    -0.06000
C282        C  0.55124618  0.38171861  0.29415622    -0.15600
C283        C  0.56559747  0.41905506  0.30212315    -0.01100
C284        C  0.57225080  0.42855624  0.32816150    -0.08700
C285        C  0.55682576  0.33087651  0.35631821     0.65600
H286        H  0.54249727  0.32545577  0.30573073     0.11000
C287        C  0.53624409  0.95166756  0.29238472     0.64000
H288        H  0.57757373  0.45764572  0.33428424     0.08400
F289        F  0.53366044  0.35580271  0.44436907    -0.19100
F290        F  0.45368745  0.38384450  0.42551283    -0.15300
F291        F  0.50709977  0.41418882  0.45723281    -0.18800
F292        F  0.67080735  0.47757894  0.35528459    -0.22200
F293        F  0.69925866  0.41881711  0.34485676    -0.23700
F294        F  0.74805257  0.45095863  0.37672987    -0.17600
F295        F  0.52675776  0.98525687  0.30558056    -0.20100
F296        F  0.48715068  0.94566908  0.27540959    -0.21300
F297        F  0.58962680  0.95459217  0.27868490    -0.18500
F298        F  0.49559812  0.32699052  0.36297908    -0.18600
F299        F  0.59308786  0.33652057  0.37809367    -0.22400
F300        F  0.57514891  0.29740804  0.34485744    -0.24000
C301        C  0.61434301  0.37403591  0.15866416    -0.10800
C302        C  0.63771601  0.41102014  0.15859245     0.11800
C303        C  0.63746060  0.43303099  0.18167000    -0.02600
C304        C  0.60571408  0.41896794  0.20227748    -0.05300
C305        C  0.57648310  0.38347317  0.20119273    -0.16100
C306        C  0.58628295  0.35936537  0.17984247     0.02800
C307        C  0.65372508  0.42493095  0.13311019     0.12700
C308        C  0.65577961  0.97752385  0.18962324     0.63400
H309        H  0.59971300  0.93980835  0.22422968     0.12800
C310        C  0.57021274  0.31794411  0.17875728     0.55500
H311        H  0.61774044  0.35626600  0.14168978     0.08600
C312        C  0.71502449  0.42631977  0.12361204    -0.05200
C313        C  0.72215166  0.42637406  0.09717904    -0.06000
C314        C  0.67085085  0.42666727  0.08009315    -0.15600
C315        C  0.61117353  0.43180478  0.08977299    -0.01100
C316        C  0.60319744  0.42966287  0.11599313    -0.08700
C317        C  0.77381481  0.42955943  0.14021784     0.65600
H318        H  0.76832586  0.42413372  0.08963972     0.11000
C319        C  0.55672800  0.43967063  0.07218388     0.64000
H320        H  0.55673638  0.43032376  0.12328878     0.08400
F321        F  0.61957335  0.29786083  0.16918941    -0.19100
F322        F  0.51863687  0.31124159  0.16300166    -0.15300
F323        F  0.55895082  0.30485170  0.20232706    -0.18800
F324        F  0.67410562  0.99260459  0.16754189    -0.22200
F325        F  0.72328485  0.46548278  0.20147187    -0.23700
F326        F  0.60942914  0.99957307  0.19966816    -0.17600
F327        F  0.50360103  0.44755897  0.08529043    -0.20100
F328        F  0.54469758  0.40910665  0.05587166    -0.21300
F329        F  0.57093784  0.47043573  0.05834610    -0.18500
F330        F  0.79388512  0.46651142  0.14161773    -0.18600
F331        F  0.82080373  0.40834317  0.12992760    -0.22400
F332        F  0.76489249  0.41812145  0.16432194    -0.24000
C333        C  0.87247337  0.30544937  0.32014505    -0.10800
C334        C  0.86994984  0.33703581  0.33671711     0.11800
C335        C  0.87607674  0.37313902  0.32674371    -0.02600
C336        C  0.89498240  0.37571622  0.30184943    -0.05300
C337        C  0.90690657  0.34386019  0.28648310    -0.16100
C338        C  0.88998109  0.30815243  0.29493649     0.02800
C339        C  0.85405272  0.33080512  0.36330733     0.12700
C340        C  0.86125894  0.40981841  0.34055414     0.63400
H341        H  0.90396869  0.40318437  0.29465304     0.12800
C342        C  0.88676985  0.27352639  0.27745995     0.55500
H343        H  0.85873308  0.27861996  0.32704887     0.08600
C344        C  0.79168648  0.32803990  0.37067875    -0.05200
C345        C  0.77969739  0.32544277  0.39633082    -0.06000
C346        C  0.82750209  0.32196385  0.41478630    -0.15600
C347        C  0.88929517  0.31775914  0.40680753    -0.01100
C348        C  0.90208394  0.32382744  0.38120691    -0.08700
C349        C  0.73579729  0.32553529  0.35259577     0.65600
H350        H  0.73158673  0.32625795  0.40187556     0.11000
C351        C  0.93950152  0.30371803  0.42464973     0.64000
H352        H  0.94941829  0.32232187  0.37489926     0.08400
F353        F  0.83769527  0.27682242  0.26030919    -0.19100
F354        F  0.87716775  0.24123673  0.29044596    -0.15300
F355        F  0.94115552  0.26950689  0.26464169    -0.18800
F356        F  0.84645197  0.40556493  0.36539824    -0.22200
F357        F  0.81150536  0.42593656  0.32820129    -0.23700
F358        F  0.91144793  0.43426667  0.33988132    -0.17600
F359        F  0.99159432  0.29250974  0.41184102    -0.20100
F360        F  0.91702844  0.27309665  0.43683289    -0.21300
F361        F  0.95718635  0.33134307  0.44249983    -0.18500
F362        F  0.69506429  0.35321091  0.35938850    -0.18600
F363        F  0.70686944  0.29104811  0.35464793    -0.22400
F364        F  0.74937635  0.32953524  0.32761802    -0.24000
C365        C  0.85662644  0.27155206  0.10749328    -0.10800
C366        C  0.90279771  0.29749211  0.11587195     0.11800
C367        C  0.93097763  0.32004959  0.09793264    -0.02600
C368        C  0.90989431  0.31697318  0.07266014    -0.05300
C369        C  0.85623745  0.29618326  0.06534092    -0.16100
C370        C  0.82862492  0.27284653  0.08318887     0.02800
C371        C  0.91446338  0.30460562  0.14365410     0.12700
C372        C  0.97927960  0.34970140  0.10570060     0.63400
H373        H  0.93058418  0.33473715  0.05907817     0.12800
C374        C  0.76808876  0.25111593  0.07762798     0.55500
H375        H  0.83820413  0.25307981  0.12101512     0.08600
C376        C  0.86955650  0.32181536  0.15931977    -0.05200
C377        C  0.88864871  0.33599513  0.18362915    -0.06000
C378        C  0.94950147  0.33112746  0.19349563    -0.15600
C379        C  0.99102664  0.30866802  0.17896751    -0.01100
C380        C  0.97334628  0.29711930  0.15407408    -0.08700
C381        C  0.80137700  0.32417052  0.15087980     0.65600
H382        H  0.85589918  0.35113664  0.19520183     0.11000
C383        C  0.05252421  0.29365055  0.18874701     0.64000
H384        H  0.00582482  0.28141892  0.14264755     0.08400
F385        F  0.71841841  0.27511409  0.07550219    -0.19100
F386        F  0.75419220  0.22813974  0.09691278    -0.15300
F387        F  0.77262736  0.22926503  0.05564903    -0.18800
F388        F  0.03279557  0.33274665  0.11418116    -0.22200
F389        F  0.95606977  0.37273324  0.12458130    -0.23700
F390        F  0.99444891  0.37191786  0.08598910    -0.17600
F391        F  0.10051910  0.30861413  0.17559247    -0.20100
F392        F  0.05287993  0.25514837  0.18469092    -0.21300
F393        F  0.06349437  0.30118412  0.21416114    -0.18500
F394        F  0.77482367  0.28875766  0.14958425    -0.18600
F395        F  0.79549870  0.33929832  0.12742372    -0.22400
F396        F  0.76755184  0.34575084  0.16765704    -0.24000
C397        C  0.66088328  0.10289305  0.15993018    -0.10800
C398        C  0.63536264  0.07419228  0.14382250     0.11800
C399        C  0.58529522  0.05246363  0.15230850    -0.02600
C400        C  0.55962359  0.06210734  0.17555110    -0.05300
C401        C  0.58172184  0.09256354  0.19076910    -0.16100
C402        C  0.63443490  0.11303640  0.18325706     0.02800
C403        C  0.65021952  0.07387285  0.11662099     0.12700
C404        C  0.56149444  0.51872760  0.14520645     0.63400
H405        H  0.51944282  0.54389033  0.18966660     0.12800
C406        C  0.66305512  0.14631684  0.19841051     0.55500
H407        H  0.69869421  0.11928892  0.15314643     0.08600
C408        C  0.61405197  0.09519211  0.10006025    -0.05200
C409        C  0.61522791  0.08664673  0.07424393    -0.06000
C410        C  0.65929636  0.06218831  0.06383228    -0.15600
C411        C  0.70422516  0.04613974  0.08039026    -0.01100
C412        C  0.69604841  0.05019124  0.10674571    -0.08700
C413        C  0.57662362  0.12810433  0.10967650     0.65600
H414        H  0.58342898  0.10102251  0.06187303     0.11000
C415        C  0.76291204  0.02793698  0.07075501     0.64000
H416        H  0.72576443  0.03555204  0.11979292     0.08400
F417        F  0.66885497  0.17638735  0.18309375    -0.19100
F418        F  0.72131955  0.13662803  0.20752679    -0.15300
F419        F  0.62841949  0.15831417  0.21857752    -0.18800
F420        F  0.60068459  0.50787953  0.12627659    -0.22200
F421        F  0.49323855  0.02661155  0.13371562    -0.23700
F422        F  0.55470311  0.48881327  0.16046824    -0.17600
F423        F  0.80216343  0.01736732  0.09027724    -0.20100
F424        F  0.79506865  0.05299470  0.05666533    -0.21300
F425        F  0.74830977  0.99640817  0.05591722    -0.18500
F426        F  0.54177532  0.14425940  0.09073728    -0.18600
F427        F  0.61640002  0.15518908  0.12056366    -0.22400
F428        F  0.53710781  0.11636140  0.12752440    -0.24000
C429        C  0.60330855  0.11798726  0.32866865    -0.10800
C430        C  0.62843450  0.08332731  0.33480970     0.11800
C431        C  0.63820184  0.05611170  0.31511467    -0.02600
C432        C  0.61097187  0.06174043  0.29098773    -0.05300
C433        C  0.58106676  0.09547896  0.28532135    -0.16100
C434        C  0.58386777  0.12545536  0.30383660     0.02800
C435        C  0.64312551  0.07670208  0.36192869     0.12700
C436        C  0.67922392  0.02199461  0.31819498     0.63400
H437        H  0.61393521  0.03977743  0.27636246     0.12800
C438        C  0.57221834  0.16619898  0.29816200     0.55500
H439        H  0.60076954  0.13995355  0.34333095     0.08600
C440        C  0.70201733  0.08572851  0.37317841    -0.05200
C441        C  0.71325464  0.07823136  0.39870510    -0.06000
C442        C  0.66639050  0.06500543  0.41395135    -0.15600
C443        C  0.60724159  0.05617812  0.40287729    -0.01100
C444        C  0.59649111  0.06190270  0.37685518    -0.08700
C445        C  0.75181711  0.10529154  0.35885543     0.65600
H446        H  0.75751719  0.08622367  0.40779494     0.11000
C447        C  0.55657909  0.04046200  0.41859052     0.64000
H448        H  0.55144997  0.05519461  0.36800436     0.08400
F449        F  0.62677829  0.18646867  0.30302578    -0.19100
F450        F  0.52712267  0.18068326  0.31368698    -0.15300
F451        F  0.55407885  0.17134800  0.27336955    -0.18800
F452        F  0.69632510  0.50306655  0.30841473    -0.22200
F453        F  0.70968639  0.02119147  0.34138603    -0.23700
F454        F  0.72395475  0.02156061  0.30001884    -0.17600
F455        F  0.50082184  0.03642401  0.40496608    -0.20100
F456        F  0.54740504  0.06383430  0.43947215    -0.21300
F457        F  0.62304880  0.50191859  0.43960581    -0.18500
F458        F  0.80449322  0.11132184  0.37391790    -0.18600
F459        F  0.73061657  0.13960004  0.35140829    -0.22400
F460        F  0.76802912  0.08406775  0.33778341    -0.24000
C461        C  0.92680751  0.18390238  0.17355990    -0.10800
C462        C  0.91115886  0.15037255  0.16002686     0.11800
C463        C  0.91436651  0.11604586  0.17250047    -0.02600
C464        C  0.94226028  0.11601201  0.19689338    -0.05300
C465        C  0.96170466  0.14950210  0.20968409    -0.16100
C466        C  0.94613416  0.18387843  0.19908764     0.02800
C467        C  0.88669580  0.15198242  0.13353034     0.12700
C468        C  0.88640290  0.08007091  0.16046135     0.63400
H469        H  0.94942204  0.08988628  0.20613636     0.12800
C470        C  0.94105677  0.21911126  0.21560651     0.55500
H471        H  0.92109234  0.21018068  0.16436785     0.08600
C472        C  0.82500691  0.16243394  0.12783512    -0.05200
C473        C  0.80113141  0.15636648  0.10298545    -0.06000
C474        C  0.83931924  0.14570738  0.08286259    -0.15600
C475        C  0.90354016  0.13839863  0.08851123    -0.01100
C476        C  0.92515587  0.14071969  0.11391975    -0.08700
C477        C  0.78515235  0.18031694  0.14799001     0.65600
H478        H  0.75217069  0.16084850  0.09907547     0.11000
C479        C  0.94955892  0.12721532  0.06839849     0.64000
H480        H  0.97264212  0.13358699  0.11886997     0.08400
F481        F  0.89685740  0.21306332  0.23338743    -0.19100
F482        F  0.92206973  0.24925083  0.20196596    -0.15300
F483        F  0.99711671  0.22803249  0.22771353    -0.18800
F484        F  0.91600730  0.07039404  0.13843815    -0.22200
F485        F  0.82386381  0.08509039  0.15492410    -0.23700
F486        F  0.89156154  0.05047380  0.17639253    -0.17600
F487        F  0.00825901  0.12073324  0.07860266    -0.20100
F488        F  0.95539281  0.15572312  0.05175153    -0.21300
F489        F  0.92959726  0.09454792  0.05557244    -0.18500
F490        F  0.72499533  0.18597702  0.13916901    -0.18600
F491        F  0.80985433  0.21475535  0.15596500    -0.22400
F492        F  0.78368820  0.15789751  0.16845645    -0.24000
C493        C  0.92326506  0.14048641  0.39307982    -0.10800
C494        C  0.90065331  0.16746622  0.37697709     0.11800
C495        C  0.85444684  0.19247199  0.38541939    -0.02600
C496        C  0.84081881  0.19384608  0.41107804    -0.05300
C497        C  0.86427339  0.16704656  0.42739228    -0.16100
C498        C  0.90286091  0.13806527  0.41766214     0.02800
C499        C  0.92307744  0.16542207  0.35102348     0.12700
C500        C  0.81678824  0.21707141  0.36835233     0.63400
H501        H  0.80737973  0.21409010  0.41795417     0.12800
C502        C  0.91757267  0.10267372  0.43172175     0.55500
H503        H  0.95342335  0.11934627  0.38539347     0.08600
C504        C  0.96029880  0.19381247  0.34095350    -0.05200
C505        C  0.98194962  0.18759238  0.31665322    -0.06000
C506        C  0.97078453  0.15388681  0.30285540    -0.15600
C507        C  0.93558006  0.12503906  0.31306246    -0.01100
C508        C  0.91166494  0.13163494  0.33696932    -0.08700
C509        C  0.98125934  0.23011353  0.35481264     0.65600
H510        H  0.01183769  0.20826330  0.30884805     0.11000
C511        C  0.92454152  0.08718899  0.29930909     0.64000
H512        H  0.88560965  0.10960201  0.34524362     0.08400
F513        F  0.95660952  0.11105420  0.45235041    -0.19100
F514        F  0.94664272  0.07602530  0.41659041    -0.15300
F515        F  0.86309918  0.08654251  0.43960926    -0.18800
F516        F  0.82657160  0.21005500  0.34301107    -0.22200
F517        F  0.83228932  0.25368181  0.37447250    -0.23700
F518        F  0.75401837  0.21185090  0.37229111    -0.17600
F519        F  0.90148877  0.06089516  0.31517309    -0.20100
F520        F  0.97929746  0.07334263  0.28984381    -0.21300
F521        F  0.88195870  0.09098281  0.27960175    -0.18500
F522        F  0.04536181  0.23225142  0.35610029    -0.18600
F523        F  0.96033529  0.23410300  0.37897605    -0.22400
F524        F  0.96033441  0.25990723  0.34157864    -0.24000
C525        C  0.40432181  0.10477267  0.37524991    -0.10800
C526        C  0.36554131  0.09066519  0.35529334     0.11800
C527        C  0.31039690  0.07079749  0.36104643    -0.02600
C528        C  0.29520892  0.06738090  0.38673639    -0.05300
C529        C  0.33125444  0.08457145  0.40677085    -0.16100
C530        C  0.38732542  0.10373184  0.40071853     0.02800
C531        C  0.38692386  0.09538950  0.32884776     0.12700
C532        C  0.24870594  0.55912009  0.34828811     0.63400
H533        H  0.25302686  0.05273210  0.39134175     0.12800
C534        C  0.42710500  0.12600741  0.42045174     0.55500
H535        H  0.44740398  0.11836848  0.37046614     0.08600
C536        C  0.39233940  0.13092415  0.31758087    -0.05200
C537        C  0.42275511  0.13304642  0.29454380    -0.06000
C538        C  0.44379657  0.10098579  0.28176612    -0.15600
C539        C  0.42971444  0.06556028  0.29079293    -0.01100
C540        C  0.40717550  0.06339879  0.31526526    -0.08700
C541        C  0.36245644  0.16606633  0.32828604     0.65600
H542        H  0.42966453  0.15971420  0.28600565     0.11000
C543        C  0.43300681  0.03085210  0.27352758     0.64000
H544        H  0.40425865  0.03650717  0.32372982     0.08400
F545        F  0.47748758  0.14345961  0.41002837    -0.19100
F546        F  0.45025558  0.10277689  0.43844586    -0.15300
F547        F  0.39177450  0.15350326  0.43198381    -0.18800
F548        F  0.20083168  0.53876885  0.35823082    -0.22200
F549        F  0.24212230  0.08681808  0.32723550    -0.23700
F550        F  0.22319860  0.58882817  0.33592931    -0.17600
F551        F  0.41147745  0.99966007  0.28512384    -0.20100
F552        F  0.49766160  0.52880721  0.27429653    -0.21300
F553        F  0.43010655  0.49875795  0.29698021    -0.18500
F554        F  0.37721918  0.19738600  0.31502828    -0.18600
F555        F  0.38150040  0.17329809  0.35306809    -0.22400
F556        F  0.29877474  0.16119369  0.32640016    -0.24000
C557        C  0.43772716  0.14582951  0.14862888    -0.10800
C558        C  0.40361063  0.11489203  0.13826970     0.11800
C559        C  0.38457919  0.08684405  0.15457503    -0.02600
C560        C  0.40869136  0.08752386  0.17960328    -0.05300
C561        C  0.44954947  0.11610691  0.18900322    -0.16100
C562        C  0.46016568  0.14728850  0.17387045     0.02800
C563        C  0.39363419  0.11001495  0.11020453     0.12700
C564        C  0.29883556  0.56301120  0.16373902     0.63400
H565        H  0.37971666  0.56421754  0.20456206     0.12800
C566        C  0.49468951  0.18267431  0.18307182     0.55500
H567        H  0.45141381  0.16783649  0.13645802     0.08600
C568        C  0.35074970  0.13122486  0.09615512    -0.05200
C569        C  0.33855241  0.12030691  0.07059389    -0.06000
C570        C  0.36767035  0.08915544  0.05900555    -0.15600
C571        C  0.41489087  0.07081579  0.07208614    -0.01100
C572        C  0.42778951  0.08203576  0.09742016    -0.08700
C573        C  0.31866134  0.16516694  0.10784710     0.65600
H574        H  0.30541118  0.13563518  0.05948628     0.11000
C575        C  0.45283099  0.04072534  0.05894520     0.64000
H576        H  0.46501685  0.06958750  0.10713121     0.08400
F577        F  0.45713367  0.21322093  0.17907447    -0.19100
F578        F  0.54796768  0.18654821  0.16946540    -0.15300
F579        F  0.51077966  0.18304392  0.20845592    -0.18800
F580        F  0.29810874  0.54237203  0.14116442    -0.22200
F581        F  0.28938865  0.07232094  0.13281851    -0.23700
F582        F  0.29000392  0.53847014  0.18283736    -0.17600
F583        F  0.48548785  0.05643817  0.03991637    -0.20100
F584        F  0.41432274  0.01257883  0.04848094    -0.21300
F585        F  0.40056252  0.49547872  0.08909846    -0.18500
F586        F  0.27676140  0.18066884  0.09108487    -0.18600
F587        F  0.36228772  0.19259059  0.11491209    -0.22400
F588        F  0.28688350  0.15518244  0.12883244    -0.24000
C589        C  0.14690516  0.18780443  0.33839588    -0.10800
C590        C  0.12962571  0.16236475  0.35632901     0.11800
C591        C  0.10722243  0.12635515  0.34800690    -0.02600
C592        C  0.09354767  0.11944366  0.32206865    -0.05300
C593        C  0.10569876  0.14651345  0.30430546    -0.16100
C594        C  0.13967266  0.17920099  0.31245512     0.02800
C595        C  0.13812936  0.17344559  0.38361595     0.12700
C596        C  0.09979396  0.09525449  0.36632754     0.63400
H597        H  0.07134671  0.09337526  0.31558823     0.12800
C598        C  0.17021668  0.20411535  0.29404341     0.55500
H599        H  0.16587735  0.21476440  0.34478841     0.08600
C600        C  0.19785410  0.17597399  0.39561338    -0.05200
C601        C  0.20240313  0.18055846  0.42187321    -0.06000
C602        C  0.14940634  0.18463266  0.43620526    -0.15600
C603        C  0.09071851  0.18817110  0.42420423    -0.01100
C604        C  0.08542178  0.18132973  0.39791405    -0.08700
C605        C  0.25638094  0.17236934  0.38095199     0.65600
H606        H  0.24721555  0.17854665  0.43161413     0.11000
C607        C  0.03574794  0.20081690  0.43936522     0.64000
H608        H  0.04016192  0.18092025  0.38853811     0.08400
F609        F  0.21310393  0.18337487  0.28076779    -0.19100
F610        F  0.20216490  0.23390676  0.30613748    -0.15300
F611        F  0.12608168  0.21805010  0.27766325    -0.18800
F612        F  0.05763786  0.10500856  0.38434319    -0.22200
F613        F  0.15621916  0.08914650  0.37841228    -0.23700
F614        F  0.07968869  0.06199188  0.35423275    -0.17600
F615        F  0.98398870  0.20625476  0.42408138    -0.20100
F616        F  0.05047761  0.23452886  0.45204627    -0.21300
F617        F  0.02126870  0.17466786  0.45674828    -0.18500
F618        F  0.25290385  0.13972443  0.36634069    -0.18600
F619        F  0.30892949  0.17136999  0.39646764    -0.22400
F620        F  0.26269891  0.20267317  0.36591787    -0.24000
C621        C  0.13828296  0.16974285  0.17310668    -0.10800
C622        C  0.11531505  0.13964810  0.15764247     0.11800
C623        C  0.08993127  0.10742415  0.16882180    -0.02600
C624        C  0.08409080  0.10839370  0.19492178    -0.05300
C625        C  0.09745416  0.14091220  0.20960781    -0.16100
C626        C  0.12994324  0.17095141  0.19918747     0.02800
C627        C  0.12801071  0.14021113  0.13051307     0.12700
C628        C  0.06947624  0.07139740  0.15429179     0.63400
H629        H  0.06390477  0.08460285  0.20388190     0.12800
C630        C  0.15853713  0.20290064  0.21541815     0.55500
H631        H  0.16263510  0.19234735  0.16445468     0.08600
C632        C  0.10874157  0.16858892  0.11406433    -0.05200
C633        C  0.12878668  0.16644377  0.08904798    -0.06000
C634        C  0.15783508  0.13414037  0.07932252    -0.15600
C635        C  0.16979777  0.10402934  0.09560021    -0.01100
C636        C  0.16319659  0.11074791  0.12125037    -0.08700
C637        C  0.06655097  0.20075131  0.12137507     0.65600
H638        H  0.11797459  0.18897301  0.07663400     0.11000
C639        C  0.18542129  0.06404824  0.08697223     0.64000
H640        H  0.18150984  0.09119369  0.13440141     0.08400
F641        F  0.18866294  0.22878100  0.20122208    -0.19100
F642        F  0.20192692  0.18869010  0.23201046    -0.15300
F643        F  0.11347851  0.22143673  0.22872466    -0.18800
F644        F  0.11854795  0.04671563  0.15358036    -0.22200
F645        F  0.04872622  0.07801121  0.13000760    -0.23700
F646        F  0.02136787  0.05396762  0.16611729    -0.17600
F647        F  0.18640552  0.04029198  0.10684087    -0.20100
F648        F  0.24314272  0.06264445  0.07646293    -0.21300
F649        F  0.14028723  0.05014752  0.06981320    -0.18500
F650        F  0.01877795  0.20294628  0.10345236    -0.18600
F651        F  0.10025957  0.23396917  0.12222326    -0.22400
F652        F  0.03979016  0.19655985  0.14436981    -0.24000
C653        C  0.54458891  0.25579614  0.99730857     0.03400
C654        C  0.55332842  0.22214968  0.49974049     0.03300
C655        C  0.49460045  0.20274085  0.49872478    -0.17200
C656        C  0.43453417  0.22051973  0.49860553     0.03400
C657        C  0.42655810  0.25553210  0.99623072     0.03300
C658        C  0.48572116  0.27426026  0.99628324    -0.17200
H659        H  0.48600503  0.30456978  0.99556406     0.05400
H660        H  0.49590448  0.17238280  0.49814933     0.05400
C661        C  0.93604082  0.01094353  0.49585408     0.03400
C662        C  0.93441628  0.47228570  0.49833495     0.03300
C663        C  0.99384936  0.45345492  0.49861722    -0.17200
C664        C  0.05423180  0.47118489  0.49839017     0.03400
C665        C  0.05559197  0.00906033  0.49469009     0.03300
C666        C  0.99698446  0.02795346  0.49310007    -0.17200
H667        H  0.99953731  0.05775793  0.49018033     0.05400
H668        H  0.99338039  0.42318932  0.49879411     0.05400
Zn669      Zn  0.24211422  0.16786608  0.50718503     1.49700
Zn670      Zn  0.33571593  0.11220811  0.48752447     1.49400
Zn671      Zn  0.22701996  0.07590260  0.51951400     1.49100
Zn672      Zn  0.17870898  0.09745917  0.96560770     1.49500
O673        O  0.24817230  0.11328046  0.49520454    -1.83100
O674        O  0.32732311  0.20085723  0.50924507    -0.73700
O675        O  0.37559357  0.09689937  0.52077571    -0.73500
O676        O  0.19612981  0.10726552  0.54670807    -0.73000
O677        O  0.38219765  0.16272749  0.48532827    -0.73700
O678        O  0.20005554  0.16865886  0.54234850    -0.73300
O679        O  0.30641703  0.05740168  0.53572252    -0.73900
O680        O  0.11333314  0.05374601  0.97178924    -0.73300
O681        O  0.32793400  0.08352984  0.94981795    -0.74000
O682        O  0.15423185  0.03578409  0.51219308    -0.73400
O683        O  0.23249269  0.09197575  0.93317976    -0.73900
O684        O  0.12704430  0.14322963  0.96812370    -0.73800
O685        O  0.18993813  0.19079303  0.98012479    -0.73600
C686        C  0.37741531  0.19422127  0.49734190     0.78200
C687        C  0.35398986  0.07899036  0.53894648     0.78700
C688        C  0.18790202  0.14015373  0.55543826     0.77700
C689        C  0.11567745  0.03267920  0.49333642     0.78000
C690        C  0.29108430  0.08590661  0.93060922     0.79200
C691        C  0.15049454  0.17517130  0.96457257     0.78200
Zn692      Zn  0.71125417  0.14668547  0.52487434     1.49700
Zn693      Zn  0.74026362  0.06195364  0.49307013     1.49400
Zn694      Zn  0.69827199  0.13976130  0.96973867     1.49100
Zn695      Zn  0.84147270  0.12338418  0.50063065     1.49500
O696        O  0.75007383  0.11861148  0.49730300    -1.83100
O697        O  0.67798348  0.10575058  0.54226966    -0.73700
O698        O  0.69333456  0.04359302  0.95550358    -0.73500
O699        O  0.62503692  0.17814985  0.97723075    -0.73000
O700        O  0.69405884  0.04819156  0.52522199    -0.73700
O701        O  0.63766340  0.18641648  0.51980438    -0.73300
O702        O  0.67092347  0.10154907  0.94344010    -0.73900
O703        O  0.85577362  0.15032746  0.97254061    -0.73300
O704        O  0.82321116  0.02810056  0.49355723    -0.74000
O705        O  0.76648135  0.16399679  0.95224782    -0.73400
O706        O  0.89203306  0.07362202  0.49841933    -0.73900
O707        O  0.86670204  0.14519800  0.53560064    -0.73800
O708        O  0.77648023  0.16244536  0.55117803    -0.73600
C709        C  0.67567923  0.07035057  0.54310254     0.78200
C710        C  0.67482524  0.06636084  0.93887649     0.78700
C711        C  0.61307866  0.19844951  0.49941997     0.77700
C712        C  0.82568587  0.16306211  0.95362801     0.78000
C713        C  0.88040628  0.03841115  0.49594350     0.79200
C714        C  0.83468866  0.15660052  0.55416332     0.78200
Zn715      Zn  0.69160838  0.33233019  0.97019152     1.49700
Zn716      Zn  0.70235116  0.34484554  0.52594959     1.49400
Zn717      Zn  0.82728351  0.35439043  0.99513055     1.49100
Zn718      Zn  0.72946721  0.41803214  0.99924458     1.49500
O719        O  0.73655296  0.36155144  0.99763767    -1.83100
O720        O  0.62616471  0.28988282  0.97690192    -0.73700
O721        O  0.77134657  0.32220787  0.54398880    -0.73500
O722        O  0.84256729  0.33552315  0.95888504    -0.73000
O723        O  0.62855857  0.30563333  0.52055048    -0.73700
O724        O  0.75027930  0.31443859  0.94428582    -0.73300
O725        O  0.86069010  0.32928050  0.52454947    -0.73900
O726        O  0.81635888  0.44990814  0.99704086    -0.73300
O727        O  0.67874785  0.38451864  0.55058809    -0.74000
O728        O  0.88216549  0.40352580  0.99869583    -0.73400
O729        O  0.69913076  0.44018832  0.53469915    -0.73900
O730        O  0.67225668  0.42849361  0.96698507    -0.73800
O731        O  0.64844551  0.37060499  0.95135465    -0.73600
C732        C  0.60227762  0.28098049  0.99756450     0.78200
C733        C  0.82966826  0.31828620  0.54318938     0.78700
C734        C  0.80718921  0.32218246  0.94085365     0.77700
C735        C  0.87309886  0.43891584  0.99797759     0.78000
C736        C  0.68245009  0.42000479  0.55290224     0.79200
C737        C  0.64558274  0.40595450  0.95019502     0.78200
Zn738      Zn  0.30226914  0.35006127  0.52337138     1.49700
Zn739      Zn  0.25223477  0.41932490  0.99057377     1.49400
Zn740      Zn  0.27259633  0.33049736  0.96703596     1.49100
Zn741      Zn  0.15289749  0.35814424  0.00107781     1.49500
O742        O  0.24161942  0.36315831  0.99404925    -1.85500
O743        O  0.36225549  0.39156579  0.52458535    -0.73700
O744        O  0.29018501  0.42462312  0.95399587    -0.73500
O745        O  0.34805649  0.29318754  0.97458276    -0.73000
O746        O  0.30572179  0.44166738  0.52810184    -0.73700
O747        O  0.35731211  0.30185292  0.51913741    -0.73300
O748        O  0.29462161  0.36462299  0.94013437    -0.73900
O749        O  0.11367511  0.33213751  0.96971072    -0.73300
O750        O  0.16530269  0.45164564  0.99172128    -0.74000
O751        O  0.19570501  0.30377252  0.95422454    -0.73400
O752        O  0.10168024  0.40601947  0.00069430    -0.73900
O753        O  0.15191788  0.34733490  0.53937603    -0.73800
O754        O  0.25056686  0.35208998  0.55437260    -0.73600
C755        C  0.34284358  0.41839036  0.53830242     0.78200
C756        C  0.29953097  0.39950282  0.93630757     0.78700
C757        C  0.36857038  0.28015319  0.99538376     0.77700
C758        C  0.14483431  0.32105769  0.95074681     0.78000
C759        C  0.10970187  0.44045979  0.99632479     0.79200
C760        C  0.19204146  0.35074107  0.55782310     0.78200
C761        C  0.02682370  0.38439473  0.72591871     0.03400
C762        C  0.97357809  0.36052470  0.72132941     0.03300
C763        C  0.93596474  0.35293058  0.74180357    -0.17200
C764        C  0.95570926  0.36241155  0.76669590     0.03400
C765        C  0.01510995  0.37929434  0.77137056     0.03300
C766        C  0.04831471  0.39222410  0.75103751    -0.17200
H767        H  0.09207513  0.40704956  0.75477107     0.05400
H768        H  0.89204467  0.33835727  0.73840786     0.05400
C769        C  0.99834283  0.16308100  0.73526586     0.03400
C770        C  0.06397445  0.15859127  0.73628042     0.03300
C771        C  0.09500640  0.15338680  0.75946266    -0.17200
C772        C  0.06307280  0.15609651  0.78211447     0.03400
C773        C  0.99787607  0.16244585  0.78116270     0.03300
C774        C  0.96626593  0.16539450  0.75781527    -0.17200
H775        H  0.91654341  0.16992879  0.75721289     0.05400
H776        H  0.14411070  0.14716206  0.75974969     0.05400
C777        C  0.48925918  0.12548262  0.71755316     0.03400
C778        C  0.55261791  0.11442728  0.71764420     0.03300
C779        C  0.58345590  0.10736394  0.74065283    -0.17200
C780        C  0.55204880  0.10940265  0.76342182     0.03400
C781        C  0.48739841  0.11652300  0.76273124     0.03300
C782        C  0.45772413  0.12660177  0.74027508    -0.17200
H783        H  0.40838649  0.13266544  0.74016602     0.05400
H784        H  0.63178415  0.09898483  0.74067858     0.05400
C785        C  0.48216922  0.37343985  0.71856226     0.03400
C786        C  0.54824889  0.37404436  0.72155196     0.03300
C787        C  0.57563604  0.37221724  0.74600838    -0.17200
C788        C  0.53921454  0.37342383  0.76766028     0.03400
C789        C  0.47340511  0.37341739  0.76454432     0.03300
C790        C  0.44582762  0.37265239  0.74016333    -0.17200
H791        H  0.39556968  0.37381556  0.73804641     0.05400
H792        H  0.62587118  0.37319698  0.74826831     0.05400
C793        C  0.38480914  0.36071185  0.65660816    -0.10800
C794        C  0.39327971  0.39588679  0.64618781     0.11800
C795        C  0.42234371  0.42480003  0.66171049    -0.02600
C796        C  0.45215040  0.41575901  0.68463876    -0.05300
C797        C  0.44996903  0.37946010  0.69365765    -0.16100
C798        C  0.41272171  0.35181122  0.68005077     0.02800
C799        C  0.37775448  0.40056859  0.61848607     0.12700
C800        C  0.40863443  0.97098926  0.65597796     0.63400
H801        H  0.46236535  0.94835200  0.69978149     0.12800
C802        C  0.40118146  0.31261414  0.68903377     0.55500
H803        H  0.35745315  0.33953690  0.64591196     0.08600
C804        C  0.41240877  0.38206254  0.59942550    -0.05200
C805        C  0.40099563  0.39050844  0.57402920    -0.06000
C806        C  0.35594200  0.41653407  0.56636230    -0.15600
C807        C  0.32021777  0.43438964  0.58536209    -0.01100
C808        C  0.33075886  0.42530459  0.61090684    -0.08700
C809        C  0.46092757  0.35279743  0.60554860     0.65600
H810        H  0.42734552  0.37593058  0.55970815     0.11000
C811        C  0.27101391  0.46279516  0.57900288     0.64000
H812        H  0.30149659  0.43734291  0.62514440     0.08400
F813        F  0.40900866  0.28670802  0.66931771    -0.19100
F814        F  0.34068341  0.30982719  0.69686087    -0.15300
F815        F  0.44076393  0.30328238  0.70869573    -0.18800
F816        F  0.34735576  0.98099206  0.65259305    -0.22200
F817        F  0.43802605  0.97215509  0.63329139    -0.23700
F818        F  0.43612078  0.99687975  0.67309609    -0.17600
F819        F  0.22441487  0.44582426  0.56397752    -0.20100
F820        F  0.29689563  0.49172194  0.56628156    -0.21300
F821        F  0.24506260  0.47825373  0.60049645    -0.18500
F822        F  0.49464489  0.34196107  0.58472662    -0.18600
F823        F  0.43210541  0.32107256  0.61390024    -0.22400
F824        F  0.50242537  0.36694336  0.62396008    -0.24000
C825        C  0.40865326  0.36223646  0.82927957    -0.10800
C826        C  0.38516596  0.39827386  0.83455920     0.11800
C827        C  0.37843459  0.42306950  0.81459336    -0.02600
C828        C  0.40633793  0.41385086  0.79146184    -0.05300
C829        C  0.43382327  0.37878567  0.78693831    -0.16100
C830        C  0.42922695  0.35127888  0.80519077     0.02800
C831        C  0.35529537  0.40526296  0.85932293     0.12700
C832        C  0.33769878  0.45727040  0.81727514     0.63400
H833        H  0.40627016  0.43371162  0.77660809     0.12800
C834        C  0.43474155  0.30966239  0.79833724     0.55500
H835        H  0.40510029  0.34155798  0.84352015     0.08600
C836        C  0.30205367  0.38457554  0.86540310    -0.05200
C837        C  0.28320272  0.38575371  0.89052306    -0.06000
C838        C  0.31324648  0.40848960  0.90964338    -0.15600
C839        C  0.35967001  0.43403552  0.90256316    -0.01100
C840        C  0.38201518  0.43090532  0.87763604    -0.08700
C841        C  0.26313870  0.36102440  0.84615594     0.65600
H842        H  0.24490094  0.36790968  0.89543664     0.11000
C843        C  0.38504766  0.46411751  0.92108755     0.64000
H844        H  0.42136181  0.44780817  0.87245678     0.08400
F845        F  0.37739531  0.29638136  0.78924454    -0.19100
F846        F  0.45186563  0.28995198  0.81928832    -0.15300
F847        F  0.47769674  0.30232493  0.77998103    -0.18800
F848        F  0.35474017  0.98834753  0.84439143    -0.22200
F849        F  0.27821776  0.44623841  0.82316728    -0.23700
F850        F  0.31193717  0.98214515  0.80531410    -0.17600
F851        F  0.41354144  0.44815828  0.94159964    -0.20100
F852        F  0.33678133  0.48633749  0.92929816    -0.21300
F853        F  0.41754029  0.99928298  0.91389032    -0.18500
F854        F  0.20358103  0.37451706  0.84602911    -0.18600
F855        F  0.26322050  0.32409702  0.85290838    -0.22400
F856        F  0.28225030  0.36209149  0.82161893    -0.24000
C857        C  0.06070916  0.41589600  0.66100085    -0.10800
C858        C  0.12254539  0.40404266  0.65827479     0.11800
C859        C  0.15771509  0.39726692  0.68079342    -0.02600
C860        C  0.12601623  0.39299688  0.70334692    -0.05300
C861        C  0.06182712  0.39938128  0.70464035    -0.16100
C862        C  0.03147054  0.41649909  0.68423919     0.02800
C863        C  0.14414524  0.39251028  0.63221708     0.12700
C864        C  0.22777382  0.39334559  0.68208420     0.63400
H865        H  0.15119856  0.38281261  0.71960933     0.12800
C866        C  0.96942840  0.43636351  0.68611007     0.55500
H867        H  0.03351722  0.42360038  0.64502894     0.08600
C868        C  0.12808281  0.41195596  0.61003563    -0.05200
C869        C  0.13770408  0.39422958  0.58629419    -0.06000
C870        C  0.17044129  0.36056442  0.58354436    -0.15600
C871        C  0.19049882  0.34224139  0.60539210    -0.01100
C872        C  0.17408782  0.35757272  0.62915909    -0.08700
C873        C  0.10398048  0.45196219  0.61031785     0.65600
H874        H  0.12343962  0.40838899  0.56943474     0.11000
C875        C  0.22647970  0.30583173  0.60370958     0.64000
H876        H  0.18455693  0.34192377  0.64564846     0.08400
F877        F  0.92557319  0.41902161  0.66992723    -0.19100
F878        F  0.97691772  0.47297221  0.67911129    -0.15300
F879        F  0.94698540  0.43746868  0.71025264    -0.18800
F880        F  0.25492259  0.40246698  0.65993039    -0.22200
F881        F  0.24267322  0.35694401  0.68749939    -0.23700
F882        F  0.25256042  0.41724433  0.70108203    -0.17600
F883        F  0.24061708  0.29253622  0.62731191    -0.20100
F884        F  0.28205369  0.31110974  0.59186824    -0.21300
F885        F  0.19123184  0.27881339  0.59020426    -0.18500
F886        F  0.12702448  0.47103719  0.59043938    -0.18600
F887        F  0.12218112  0.47169286  0.63234127    -0.22400
F888        F  0.03990387  0.45195509  0.60746363    -0.24000
C889        C  0.06167111  0.33836065  0.83287827    -0.10800
C890        C  0.07258052  0.36952915  0.84953697     0.11800
C891        C  0.07572587  0.40557963  0.83864322    -0.02600
C892        C  0.05596114  0.40883232  0.81302992    -0.05300
C893        C  0.04549639  0.37689664  0.79698439    -0.16100
C894        C  0.05669116  0.34152430  0.80683334     0.02800
C895        C  0.09026314  0.36035164  0.87648559     0.12700
C896        C  0.10327686  0.44059584  0.85194918     0.63400
H897        H  0.05128447  0.43629772  0.80529512     0.12800
C898        C  0.07081923  0.30682369  0.79089150     0.55500
H899        H  0.06289162  0.31041556  0.84000550     0.08600
C900        C  0.06396051  0.37600687  0.89884661    -0.05200
C901        C  0.08412162  0.36298583  0.92251480    -0.06000
C902        C  0.12545631  0.33273644  0.92482026    -0.15600
C903        C  0.15031631  0.31672139  0.90247848    -0.01100
C904        C  0.13274552  0.33101670  0.87921693    -0.08700
C905        C  0.01351616  0.40526212  0.89899057     0.65600
H906        H  0.06577912  0.37615601  0.93944613     0.11000
C907        C  0.19469612  0.28416070  0.90253995     0.64000
H908        H  0.15241870  0.31866301  0.86241764     0.08400
F909        F  0.03260290  0.27786130  0.79735135    -0.19100
F910        F  0.13187612  0.29731648  0.79601039    -0.15300
F911        F  0.06429442  0.31144665  0.76530019    -0.18800
F912        F  0.14803144  0.45567641  0.83701465    -0.22200
F913        F  0.13182775  0.43360859  0.87487509    -0.23700
F914        F  0.05715954  0.46682551  0.85550758    -0.17600
F915        F  0.17027205  0.25654361  0.91660677    -0.20100
F916        F  0.25229540  0.29553986  0.91251665    -0.21300
F917        F  0.20319592  0.26895680  0.87857943    -0.18500
F918        F  0.03862315  0.43985299  0.90658961    -0.18600
F919        F  0.96801211  0.39628255  0.91561220    -0.22400
F920        F  0.98494806  0.40753028  0.87568010    -0.24000
C921        C  0.54638921  0.40636308  0.89005221    -0.10800
C922        C  0.59157470  0.41738318  0.87313678     0.11800
C923        C  0.64714615  0.43507588  0.88346002    -0.02600
C924        C  0.65862918  0.43591409  0.90985129    -0.05300
C925        C  0.61789238  0.41893868  0.92614593    -0.16100
C926        C  0.55992429  0.40463248  0.91616979     0.02800
C927        C  0.58307668  0.40487184  0.84556112     0.12700
C928        C  0.69373262  0.45428366  0.86729622     0.63400
H929        H  0.70218778  0.44729162  0.91780239     0.12800
C930        C  0.51519419  0.38397912  0.93247396     0.55500
H931        H  0.50239386  0.39556214  0.88234939     0.08600
C932        C  0.57607563  0.36609282  0.83779047    -0.05200
C933        C  0.57026998  0.35613756  0.81174282    -0.06000
C934        C  0.56847205  0.38302581  0.79326959    -0.15600
C935        C  0.58186608  0.42067069  0.80060056    -0.01100
C936        C  0.58562450  0.43141420  0.82658202    -0.08700
C937        C  0.56941657  0.33472729  0.85633313     0.65600
H938        H  0.56321609  0.32715214  0.80569924     0.11000
C939        C  0.54440524  0.96405773  0.79587878     0.64000
H940        H  0.59083808  0.46068061  0.83210489     0.08400
F941        F  0.53737396  0.34859597  0.93691509    -0.19100
F942        F  0.45692507  0.37965045  0.92087948    -0.15300
F943        F  0.50884690  0.40354420  0.95527210    -0.18800
F944        F  0.66863906  0.48741217  0.85985141    -0.22200
F945        F  0.70731902  0.43240147  0.84621940    -0.23700
F946        F  0.74916415  0.46263003  0.88039710    -0.17600
F947        F  0.54340897  0.99744876  0.81000803    -0.20100
F948        F  0.49105664  0.96173400  0.78100766    -0.21300
F949        F  0.59435838  0.96434860  0.78019630    -0.18500
F950        F  0.50947094  0.33366031  0.86482307    -0.18600
F951        F  0.60984379  0.33947995  0.87695544    -0.22400
F952        F  0.58117654  0.30003422  0.84495338    -0.24000
C953        C  0.62080692  0.37614373  0.65679211    -0.10800
C954        C  0.64356475  0.41333178  0.65697436     0.11800
C955        C  0.64607717  0.43433623  0.68049864    -0.02600
C956        C  0.61728521  0.41926494  0.70138649    -0.05300
C957        C  0.58878613  0.38367337  0.70022381    -0.16100
C958        C  0.59580735  0.36043904  0.67825257     0.02800
C959        C  0.65707969  0.42837542  0.63156364     0.12700
C960        C  0.66990923  0.98515076  0.68916950     0.63400
H961        H  0.60245564  0.95338485  0.72394219     0.12800
C962        C  0.58046769  0.31887495  0.67674508     0.55500
H963        H  0.62241639  0.35902079  0.63945868     0.08600
C964        C  0.71775001  0.43297518  0.62187116    -0.05200
C965        C  0.72374780  0.43717908  0.59568282    -0.06000
C966        C  0.67214226  0.43574861  0.57877875    -0.15600
C967        C  0.61211706  0.43560063  0.58863595    -0.01100
C968        C  0.60538083  0.43180265  0.61478513    -0.08700
C969        C  0.77785146  0.43258791  0.63762162     0.65600
H970        H  0.76989617  0.43755893  0.58798677     0.11000
C971        C  0.55550380  0.43626806  0.57108314     0.64000
H972        H  0.55916910  0.42933996  0.62215311     0.08400
F973        F  0.63217606  0.29939517  0.66884481    -0.19100
F974        F  0.53214064  0.31172723  0.65941673    -0.15300
F975        F  0.56439160  0.30543372  0.69970822    -0.18800
F976        F  0.68686929  0.99883818  0.66642232    -0.22200
F977        F  0.73161861  0.46616884  0.70082143    -0.23700
F978        F  0.63093621  0.01077667  0.70063789    -0.17600
F979        F  0.50276890  0.44504596  0.58417666    -0.20100
F980        F  0.54701955  0.40155716  0.55886335    -0.21300
F981        F  0.56348336  0.46301357  0.55330457    -0.18500
F982        F  0.80326604  0.46836724  0.63934082    -0.18600
F983        F  0.82020490  0.40918239  0.62608633    -0.22400
F984        F  0.76964626  0.42063267  0.66163142    -0.24000
C985        C  0.88089139  0.31455169  0.82070220    -0.10800
C986        C  0.87803721  0.34499302  0.83820446     0.11800
C987        C  0.88443751  0.38186001  0.82947625    -0.02600
C988        C  0.90451000  0.38614811  0.80489346    -0.05300
C989        C  0.91566874  0.35527430  0.78848266    -0.16100
C990        C  0.89848008  0.31894030  0.79573760     0.02800
C991        C  0.85989678  0.33667316  0.86417052     0.12700
C992        C  0.86776272  0.41754497  0.84414765     0.63400
H993        H  0.91391751  0.41412970  0.79863668     0.12800
C994        C  0.89459944  0.28526146  0.77735513     0.55500
H995        H  0.86701659  0.28719721  0.82655801     0.08600
C996        C  0.79690093  0.33316351  0.87037875    -0.05200
C997        C  0.78229430  0.32640163  0.89533315    -0.06000
C998        C  0.82828514  0.32134024  0.91428218    -0.15600
C999        C  0.89142897  0.32042407  0.90742561    -0.01100
C1000       C  0.90639126  0.32901107  0.88248565    -0.08700
C1001       C  0.74265098  0.33693255  0.85186740     0.65600
H1002       H  0.73360244  0.32625324  0.90009210     0.11000
C1003       C  0.94186668  0.30842652  0.92589084     0.64000
H1004       H  0.95455147  0.32972749  0.87712798     0.08400
F1005       F  0.84350397  0.28885760  0.76125311    -0.19100
F1006       F  0.88787053  0.25203688  0.78959181    -0.15300
F1007       F  0.94739904  0.28256349  0.76343937    -0.18800
F1008       F  0.84891685  0.41137926  0.86828029    -0.22200
F1009       F  0.82005904  0.43476236  0.83121988    -0.23700
F1010       F  0.91806942  0.44205046  0.84557997    -0.17600
F1011       F  0.99606373  0.29941222  0.91379840    -0.20100
F1012       F  0.92189482  0.27704581  0.93788368    -0.21300
F1013       F  0.95533877  0.33676694  0.94379464    -0.18500
F1014       F  0.70718132  0.36626612  0.86040279    -0.18600
F1015       F  0.70754840  0.30424564  0.85114053    -0.22400
F1016       F  0.75870179  0.34386793  0.82752157    -0.24000
C1017       C  0.85583124  0.28498483  0.60963936    -0.10800
C1018       C  0.90212336  0.31084312  0.61826783     0.11800
C1019       C  0.93240000  0.33239727  0.60016140    -0.02600
C1020       C  0.91443403  0.32780257  0.57454955    -0.05300
C1021       C  0.86143693  0.30694310  0.56681212    -0.16100
C1022       C  0.83161459  0.28470453  0.58462502     0.02800
C1023       C  0.91547781  0.31712814  0.64615658     0.12700
C1024       C  0.97838493  0.36338802  0.60786577     0.63400
H1025       H  0.93651997  0.34469904  0.56082830     0.12800
C1026       C  0.77142778  0.26328241  0.57805950     0.55500
H1027       H  0.83485631  0.26741332  0.62311141     0.08600
C1028       C  0.87140179  0.33228279  0.66316388    -0.05200
C1029       C  0.89302630  0.34707076  0.68697580    -0.06000
C1030       C  0.95523093  0.34347298  0.69561377    -0.15600
C1031       C  0.99565622  0.32148462  0.68027496    -0.01100
C1032       C  0.97565628  0.31020574  0.65557518    -0.08700
C1033       C  0.80147941  0.32979336  0.65773542     0.65600
H1034       H  0.86087344  0.36135663  0.69926979     0.11000
C1035       C  0.05790949  0.30625297  0.68900973     0.64000
H1036       H  0.00729153  0.29486418  0.64353423     0.08400
F1037       F  0.72177497  0.28755137  0.57743140    -0.19100
F1038       F  0.75843074  0.23774581  0.59589978    -0.15300
F1039       F  0.77563752  0.24431159  0.55490761    -0.18800
F1040       F  0.03170601  0.34852013  0.61821028    -0.22200
F1041       F  0.95115983  0.38743105  0.62515735    -0.23700
F1042       F  0.99528676  0.38410815  0.58765510    -0.17600
F1043       F  0.10447679  0.32099275  0.67503004    -0.20100
F1044       F  0.05760830  0.26775928  0.68487401    -0.21300
F1045       F  0.07159554  0.31371269  0.71425391    -0.18500
F1046       F  0.78214250  0.29293732  0.65886874    -0.18600
F1047       F  0.78582048  0.34245880  0.63421891    -0.22400
F1048       F  0.76860118  0.35038976  0.67542397    -0.24000
C1049       C  0.66033076  0.10930953  0.66140531    -0.10800
C1050       C  0.63243201  0.07936072  0.64718524     0.11800
C1051       C  0.58422726  0.05871506  0.65775599    -0.02600
C1052       C  0.55940247  0.07173760  0.68049891    -0.05300
C1053       C  0.58369572  0.10347183  0.69389748    -0.16100
C1054       C  0.63751936  0.12154068  0.68500977     0.02800
C1055       C  0.64461444  0.07465547  0.61983129     0.12700
C1056       C  0.57388523  0.52004714  0.64518506     0.63400
H1057       H  0.53227341  0.54325805  0.69049700     0.12800
C1058       C  0.67220347  0.15361452  0.69920647     0.55500
H1059       H  0.69789867  0.12441031  0.65325511     0.08600
C1060       C  0.60155120  0.08844792  0.60196478    -0.05200
C1061       C  0.60457870  0.07608467  0.57673574    -0.06000
C1062       C  0.65734194  0.05784405  0.56779026    -0.15600
C1063       C  0.70355005  0.04609225  0.58541865    -0.01100
C1064       C  0.69434818  0.05271797  0.61147225    -0.08700
C1065       C  0.55538858  0.11823225  0.60938654     0.65600
H1066       H  0.57106490  0.08626409  0.56303901     0.11000
C1067       C  0.76536179  0.03100031  0.57670154     0.64000
H1068       H  0.72740772  0.04272547  0.62536571     0.08400
F1069       F  0.67966930  0.18311763  0.68350908    -0.19100
F1070       F  0.73023201  0.14124871  0.70686768    -0.15300
F1071       F  0.64230312  0.16732469  0.72023160    -0.18800
F1072       F  0.61892134  0.50810957  0.62891761    -0.22200
F1073       F  0.49419486  0.03375773  0.63809581    -0.23700
F1074       F  0.56064181  0.49088220  0.66041227    -0.17600
F1075       F  0.80104049  0.01778476  0.59648919    -0.20100
F1076       F  0.79868725  0.05918912  0.56589759    -0.21300
F1077       F  0.75546179  0.00192992  0.55905204    -0.18500
F1078       F  0.52171132  0.13092148  0.58886343    -0.18600
F1079       F  0.58655156  0.14858634  0.62109729    -0.22400
F1080       F  0.51462484  0.10365416  0.62578438    -0.24000
C1081       C  0.60837798  0.11371890  0.83219814    -0.10800
C1082       C  0.63404800  0.07805787  0.83424115     0.11800
C1083       C  0.64428272  0.05585368  0.81214301    -0.02600
C1084       C  0.61709179  0.06695386  0.78918853    -0.05300
C1085       C  0.58613059  0.10137255  0.78748207    -0.16100
C1086       C  0.58816960  0.12682854  0.80882008     0.02800
C1087       C  0.65120552  0.06577373  0.85983006     0.12700
C1088       C  0.68490701  0.02139625  0.81285520     0.63400
H1089       H  0.61953671  0.04868357  0.77245199     0.12800
C1090       C  0.57575548  0.16855661  0.80778619     0.55500
H1091       H  0.60622923  0.13202648  0.84897390     0.08600
C1092       C  0.70902747  0.07516165  0.87197228    -0.05200
C1093       C  0.71772671  0.06785604  0.89754825    -0.06000
C1094       C  0.66919307  0.05460815  0.91194875    -0.15600
C1095       C  0.61262019  0.04319123  0.89964431    -0.01100
C1096       C  0.60469418  0.04861885  0.87358962    -0.08700
C1097       C  0.76182397  0.09535049  0.85989401     0.65600
H1098       H  0.76102396  0.07690348  0.90712188     0.11000
C1099       C  0.55843700  0.02736748  0.91323502     0.64000
H1100       H  0.56032901  0.04146556  0.86423136     0.08400
F1101       F  0.63050347  0.18796882  0.81392577    -0.19100
F1102       F  0.53216844  0.17896368  0.82530083    -0.15300
F1103       F  0.55539621  0.17936298  0.78428885    -0.18800
F1104       F  0.70301767  0.50440522  0.81386209    -0.22200
F1105       F  0.74399394  0.03121752  0.82183050    -0.23700
F1106       F  0.69085125  0.00453020  0.78915224    -0.17600
F1107       F  0.53971165  0.99369696  0.90151049    -0.20100
F1108       F  0.51001128  0.05212640  0.91181507    -0.21300
F1109       F  0.58340922  0.51047889  0.94132858    -0.18500
F1110       F  0.77362223  0.12881442  0.87329404    -0.18600
F1111       F  0.75001720  0.10344106  0.83499510    -0.22400
F1112       F  0.81420402  0.07324781  0.86118094    -0.24000
C1113       C  0.93337168  0.19467542  0.67254739    -0.10800
C1114       C  0.92194550  0.16030019  0.65943711     0.11800
C1115       C  0.92477103  0.12672001  0.67276465    -0.02600
C1116       C  0.94762393  0.12860192  0.69800846    -0.05300
C1117       C  0.96297690  0.16307051  0.71054351    -0.16100
C1118       C  0.94828654  0.19647195  0.69850477     0.02800
C1119       C  0.90088650  0.16086920  0.63247161     0.12700
C1120       C  0.90186354  0.08949736  0.66070513     0.63400
H1121       H  0.95441171  0.10317756  0.70810605     0.12800
C1122       C  0.94068784  0.23282449  0.71353685     0.55500
H1123       H  0.92767556  0.22024861  0.66249636     0.08600
C1124       C  0.83970556  0.17090629  0.62560696    -0.05200
C1125       C  0.82104258  0.16839237  0.60005759    -0.06000
C1126       C  0.86245163  0.15968292  0.58060784    -0.15600
C1127       C  0.92466362  0.14970303  0.58767103    -0.01100
C1128       C  0.94251515  0.15081389  0.61358202    -0.08700
C1129       C  0.79416255  0.18431162  0.64526666     0.65600
H1130       H  0.77256698  0.17260062  0.59525381     0.11000
C1131       C  0.97184809  0.13649380  0.56856456     0.64000
H1132       H  0.98922574  0.14339673  0.61946322     0.08400
F1133       F  0.89593462  0.22778855  0.73122803    -0.19100
F1134       F  0.92093205  0.26124150  0.69847959    -0.15300
F1135       F  0.99587805  0.24364382  0.72558683    -0.18800
F1136       F  0.93493624  0.08046070  0.63944356    -0.22200
F1137       F  0.83958416  0.09185372  0.65381028    -0.23700
F1138       F  0.90816750  0.06058284  0.67714454    -0.17600
F1139       F  0.02800878  0.12736169  0.58000783    -0.20100
F1140       F  0.98313503  0.16457707  0.55208149    -0.21300
F1141       F  0.94988571  0.10460742  0.55533272    -0.18500
F1142       F  0.73463206  0.18809600  0.63509304    -0.18600
F1143       F  0.81319672  0.21877723  0.65560848    -0.22400
F1144       F  0.79185048  0.15929099  0.66429354    -0.24000
C1145       C  0.92268895  0.15208151  0.89564356    -0.10800
C1146       C  0.89553400  0.17854538  0.88015763     0.11800
C1147       C  0.84633303  0.20065504  0.88943949    -0.02600
C1148       C  0.83152803  0.19860977  0.91497184    -0.05300
C1149       C  0.85813978  0.17155644  0.93039329    -0.16100
C1150       C  0.90241604  0.14640952  0.92004922     0.02800
C1151       C  0.91549224  0.17854457  0.85356235     0.12700
C1152       C  0.80676204  0.22400720  0.87214148     0.63400
H1153       H  0.79516052  0.21615334  0.92256130     0.12800
C1154       C  0.92401046  0.11159382  0.93337314     0.55500
H1155       H  0.95839590  0.13453844  0.88792676     0.08600
C1156       C  0.95677478  0.20569995  0.84444487    -0.05200
C1157       C  0.97917830  0.20011387  0.82010649    -0.06000
C1158       C  0.96328729  0.16842446  0.80474662    -0.15600
C1159       C  0.92211357  0.14123103  0.81364465    -0.01100
C1160       C  0.89909278  0.14695142  0.83798231    -0.08700
C1161       C  0.98106128  0.24015222  0.85942547     0.65600
H1162       H  0.01289822  0.21967869  0.81348302     0.11000
C1163       C  0.90451745  0.10575430  0.79804913     0.64000
H1164       H  0.86969937  0.12591640  0.84549990     0.08400
F1165       F  0.95804947  0.12161474  0.95512225    -0.19100
F1166       F  0.96119833  0.08915425  0.91833115    -0.15300
F1167       F  0.87299901  0.09016724  0.93941709    -0.18800
F1168       F  0.78469704  0.20206704  0.85164068    -0.22200
F1169       F  0.84181782  0.25303176  0.86369820    -0.23700
F1170       F  0.75596189  0.23896567  0.88426003    -0.17600
F1171       F  0.87072448  0.08086018  0.81169541    -0.20100
F1172       F  0.95728976  0.08758746  0.79002380    -0.21300
F1173       F  0.86850583  0.11480248  0.77724408    -0.18500
F1174       F  0.96670562  0.27147313  0.84638031    -0.18600
F1175       F  0.04498255  0.23889914  0.86217803    -0.22400
F1176       F  0.95655222  0.24409194  0.88299701    -0.24000
C1177       C  0.40080364  0.09853899  0.87577366    -0.10800
C1178       C  0.36122590  0.09039174  0.85483095     0.11800
C1179       C  0.30091365  0.07537476  0.85866931    -0.02600
C1180       C  0.28097491  0.07225714  0.88371055    -0.05300
C1181       C  0.31858180  0.08414800  0.90485277    -0.16100
C1182       C  0.37998050  0.09800186  0.90062153     0.02800
C1183       C  0.38609380  0.09846483  0.82962855     0.12700
C1184       C  0.26704093  0.54800706  0.84975887     0.63400
H1185       H  0.23422132  0.06203258  0.88668449     0.12800
C1186       C  0.42140462  0.11678407  0.92145448     0.55500
H1187       H  0.44746072  0.10839044  0.87225036     0.08600
C1188       C  0.39751700  0.13560522  0.82178733    -0.05200
C1189       C  0.42914767  0.14038959  0.79936552    -0.06000
C1190       C  0.44884856  0.10981709  0.78468115    -0.15600
C1191       C  0.43037594  0.07335727  0.79058013    -0.01100
C1192       C  0.40347665  0.06798994  0.81393809    -0.08700
C1193       C  0.37272562  0.17026876  0.83537837     0.65600
H1194       H  0.43845928  0.16817811  0.79289232     0.11000
C1195       C  0.43464616  0.04105647  0.77135177     0.64000
H1196       H  0.39402829  0.03994714  0.81975977     0.08400
F1197       F  0.47554175  0.13168215  0.91225619    -0.19100
F1198       F  0.43866270  0.09158250  0.93935150    -0.15300
F1199       F  0.38971001  0.14600630  0.93278625    -0.18800
F1200       F  0.25350161  0.51167596  0.85602872    -0.22200
F1201       F  0.27765678  0.06612902  0.81361723    -0.23700
F1202       F  0.21272596  0.56811597  0.84926846    -0.17600
F1203       F  0.40605251  0.00927754  0.77957232    -0.20100
F1204       F  0.51649402  0.52526456  0.77510613    -0.21300
F1205       F  0.45398427  0.49307176  0.79896996    -0.18500
F1206       F  0.39791367  0.20292322  0.82658270    -0.18600
F1207       F  0.38641434  0.17038240  0.86091364    -0.22400
F1208       F  0.30921544  0.17115369  0.83105030    -0.24000
C1209       C  0.43821530  0.15216487  0.65130498    -0.10800
C1210       C  0.39380116  0.12357374  0.64498402     0.11800
C1211       C  0.37184968  0.10191280  0.66484619    -0.02600
C1212       C  0.40280267  0.10465318  0.68848594    -0.05300
C1213       C  0.45221672  0.12984833  0.69367347    -0.16100
C1214       C  0.46544731  0.15682596  0.67576593     0.02800
C1215       C  0.37968298  0.11344914  0.61751558     0.12700
C1216       C  0.31036473  0.55840230  0.66213485     0.63400
H1217       H  0.39043380  0.55867665  0.70366265     0.12800
C1218       C  0.50453037  0.19178986  0.68187545     0.55500
H1219       H  0.45342478  0.17035277  0.63680874     0.08600
C1220       C  0.36179800  0.13953815  0.59923674    -0.05200
C1221       C  0.35954705  0.12764388  0.57345353    -0.06000
C1222       C  0.37418385  0.09075619  0.56520307    -0.15600
C1223       C  0.39498317  0.06560276  0.58327971    -0.01100
C1224       C  0.39390824  0.07680061  0.60895596    -0.08700
C1225       C  0.34211170  0.17944011  0.60578010     0.65600
H1226       H  0.34300837  0.14701210  0.55960836     0.11000
C1227       C  0.42380557  0.02818590  0.57660805     0.64000
H1228       H  0.40518707  0.05651466  0.62273726     0.08400
F1229       F  0.46902225  0.22281326  0.67698751    -0.19100
F1230       F  0.55576228  0.19200478  0.66682502    -0.15300
F1231       F  0.52443668  0.19507980  0.70687528    -0.18800
F1232       F  0.31247846  0.53746832  0.63974933    -0.22200
F1233       F  0.26794801  0.09518103  0.67663314    -0.23700
F1234       F  0.29935981  0.53436049  0.68132963    -0.17600
F1235       F  0.48527791  0.02914632  0.58497832    -0.20100
F1236       F  0.42228284  0.01943292  0.55099354    -0.21300
F1237       F  0.41211008  0.49580317  0.58494218    -0.18500
F1238       F  0.28683723  0.18691354  0.59313108    -0.18600
F1239       F  0.38721005  0.20411676  0.59824659    -0.22400
F1240       F  0.33259917  0.18593728  0.63120688    -0.24000
C1241       C  0.14409829  0.19116171  0.84224752    -0.10800
C1242       C  0.12215505  0.16586319  0.85940342     0.11800
C1243       C  0.09198393  0.13214786  0.85003379    -0.02600
C1244       C  0.07924403  0.12763140  0.82390143    -0.05300
C1245       C  0.09737434  0.15468757  0.80701561    -0.16100
C1246       C  0.13641095  0.18469766  0.81617074     0.02800
C1247       C  0.13249605  0.17599782  0.88666703     0.12700
C1248       C  0.07245117  0.10000655  0.86614828     0.63400
H1249       H  0.05240884  0.10347229  0.81671221     0.12800
C1250       C  0.17131203  0.20922726  0.79873417     0.55500
H1251       H  0.16680067  0.21661856  0.84945058     0.08600
C1252       C  0.19285971  0.17740050  0.89835822    -0.05200
C1253       C  0.19794557  0.18140547  0.92463112    -0.06000
C1254       C  0.14553481  0.18752053  0.93901144    -0.15600
C1255       C  0.08726441  0.19296334  0.92726938    -0.01100
C1256       C  0.08081443  0.18559166  0.90112238    -0.08700
C1257       C  0.25168892  0.17433250  0.88363770     0.65600
H1258       H  0.24262540  0.17833227  0.93430909     0.11000
C1259       C  0.03451734  0.20866222  0.94253549     0.64000
H1260       H  0.03561889  0.18687258  0.89187158     0.08400
F1261       F  0.21280357  0.18736609  0.78546219    -0.19100
F1262       F  0.20544578  0.23729092  0.81179245    -0.15300
F1263       F  0.13026914  0.22572034  0.78225942    -0.18800
F1264       F  0.00995992  0.09198929  0.86169944    -0.22200
F1265       F  0.08281140  0.10729702  0.89168334    -0.23700
F1266       F  0.10508592  0.06820296  0.85941194    -0.17600
F1267       F  0.98215366  0.21400081  0.92760282    -0.20100
F1268       F  0.05285091  0.24297293  0.95355429    -0.21300
F1269       F  0.01931593  0.18496443  0.96133307    -0.18500
F1270       F  0.30323491  0.16851835  0.89905332    -0.18600
F1271       F  0.26222505  0.20697046  0.87140494    -0.22400
F1272       F  0.24609775  0.14492543  0.86626910    -0.24000
C1273       C  0.14822450  0.18384442  0.67755215    -0.10800
C1274       C  0.12933601  0.15334273  0.66144044     0.11800
C1275       C  0.10120285  0.12135355  0.67212795    -0.02600
C1276       C  0.08928539  0.12291054  0.69786728    -0.05300
C1277       C  0.09883839  0.15562070  0.71268151    -0.16100
C1278       C  0.13310555  0.18570453  0.70317479     0.02800
C1279       C  0.14560178  0.15381291  0.63430424     0.12700
C1280       C  0.08354619  0.08485177  0.65757511     0.63400
H1281       H  0.06804102  0.09910061  0.70641431     0.12800
C1282       C  0.15744715  0.21810028  0.72019327     0.55500
H1283       H  0.17615527  0.20583545  0.67004178     0.08600
C1284       C  0.12628718  0.18154473  0.61728539    -0.05200
C1285       C  0.14246365  0.17709500  0.59167776    -0.06000
C1286       C  0.16928922  0.14377777  0.58225351    -0.15600
C1287       C  0.18135493  0.11462540  0.59934991    -0.01100
C1288       C  0.17838347  0.12322534  0.62505631    -0.08700
C1289       C  0.08888214  0.21542536  0.62560479     0.65600
H1290       H  0.13212296  0.19898994  0.57874089     0.11000
C1291       C  0.19288951  0.07370355  0.59149396     0.64000
H1292       H  0.19606265  0.10384996  0.63830688     0.08400
F1293       F  0.18633093  0.24540073  0.70676286    -0.19100
F1294       F  0.20056268  0.20479001  0.73728831    -0.15300
F1295       F  0.10980309  0.23474615  0.73311154    -0.18800
F1296       F  0.13353222  0.06084484  0.65779726    -0.22200
F1297       F  0.06443132  0.09095814  0.63303194    -0.23700
F1298       F  0.03521326  0.06668853  0.66877436    -0.17600
F1299       F  0.19189932  0.05051162  0.61170574    -0.20100
F1300       F  0.25014073  0.07004154  0.58082003    -0.21300
F1301       F  0.14634839  0.06064182  0.57469024    -0.18500
F1302       F  0.06008491  0.23176691  0.60520735    -0.18600
F1303       F  0.12753077  0.24195887  0.63781881    -0.22400
F1304       F  0.04299227  0.20509806  0.64163467    -0.24000
C1305       C  0.54758147  0.76174180  0.50837571     0.03400
C1306       C  0.54514251  0.71717204  0.00696188     0.03300
C1307       C  0.48562363  0.69872305  0.00693184    -0.17200
C1308       C  0.42631590  0.71735890  0.00680543     0.03400
C1309       C  0.42954037  0.76077327  0.50715297     0.03300
C1310       C  0.48848728  0.77995340  0.50842868    -0.17200
H1311       H  0.48838610  0.81034306  0.50880984     0.05400
H1312       H  0.48554889  0.66835467  0.00686499     0.05400
C1313       C  0.93232311  0.50653689  0.99754078     0.03400
C1314       C  0.92878260  0.96774416  0.99701932     0.03300
C1315       C  0.98865584  0.94959579  0.99838979    -0.17200
C1316       C  0.04882608  0.96749058  0.99639472     0.03400
C1317       C  0.05161153  0.50558743  0.99511799     0.03300
C1318       C  0.99273738  0.52442711  0.99573560    -0.17200
H1319       H  0.99454099  0.55471858  0.99528323     0.05400
H1320       H  0.98859779  0.91983116  0.00135909     0.05400
Zn1321     Zn  0.23437238  0.66456935  0.01519154     1.49700
Zn1322     Zn  0.32757386  0.61113269  0.99384950     1.49400
Zn1323     Zn  0.21884754  0.57154323  0.02315783     1.49100
Zn1324     Zn  0.18467455  0.60154022  0.47446870     1.49500
O1325       O  0.24017934  0.61127601  0.00104469    -1.83100
O1326       O  0.32072382  0.69662077  0.01907365    -0.73700
O1327       O  0.36662857  0.59512604  0.02637487    -0.73500
O1328       O  0.18271981  0.59973802  0.05068942    -0.73000
O1329       O  0.37125680  0.66198731  0.99139124    -0.73700
O1330       O  0.18702289  0.66166155  0.04944592    -0.73300
O1331       O  0.29799280  0.55313398  0.03878572    -0.73900
O1332       O  0.12045173  0.55823351  0.47945380    -0.73300
O1333       O  0.33501663  0.58836624  0.45888414    -0.74000
O1334       O  0.15018889  0.53028000  0.01349875    -0.73400
O1335       O  0.23820205  0.59497115  0.44292598    -0.73900
O1336       O  0.13043039  0.64593037  0.47470508    -0.73800
O1337       O  0.19254164  0.69377776  0.48648942    -0.73600
C1338       C  0.36860106  0.69172932  0.00541172     0.78200
C1339       C  0.34429301  0.57524649  0.04333353     0.78700
C1340       C  0.17260691  0.63163807  0.06069619     0.77700
C1341       C  0.11085030  0.52981611  0.99494805     0.78000
C1342       C  0.29660353  0.58927274  0.43999605     0.79200
C1343       C  0.15319046  0.67789408  0.47094046     0.78200
Zn1344     Zn  0.68762026  0.63158945  0.03074189     1.49700
Zn1345     Zn  0.73393112  0.55344370  0.99817268     1.49400
Zn1346     Zn  0.70614207  0.65036333  0.47961717     1.49100
Zn1347     Zn  0.82898376  0.61651231  0.00940163     1.49500
O1348       O  0.73901684  0.61074184  0.00356651    -1.83100
O1349       O  0.63525127  0.58663762  0.03150801    -0.73700
O1350       O  0.69618980  0.55465893  0.46254438    -0.73500
O1351       O  0.63190864  0.68760081  0.48664588    -0.73000
O1352       O  0.69443654  0.53745197  0.03155681    -0.73700
O1353       O  0.62339211  0.67670412  0.02656727    -0.73300
O1354       O  0.67992844  0.61432869  0.45269388    -0.73900
O1355       O  0.86135007  0.65586226  0.48160420    -0.73300
O1356       O  0.81903325  0.52227750  0.99606563    -0.74000
O1357       O  0.77361875  0.67595744  0.46303115    -0.73400
O1358       O  0.88506524  0.56811389  0.00543834    -0.73900
O1359       O  0.84168349  0.63594145  0.04582434    -0.73800
O1360       O  0.74656823  0.63763556  0.06159127    -0.73600
C1361       C  0.66034364  0.56073760  0.04353101     0.78200
C1362       C  0.68058068  0.57948278  0.44674869     0.78700
C1363       C  0.60352381  0.69205438  0.00650725     0.77700
C1364       C  0.83200452  0.67055525  0.46325844     0.78000
C1365       C  0.87555327  0.53317980  0.99987009     0.79200
C1366       C  0.80602708  0.63924503  0.06462709     0.78200
Zn1367     Zn  0.69616859  0.83367197  0.47932799     1.49700
Zn1368     Zn  0.69513772  0.84067995  0.03228576     1.49400
Zn1369     Zn  0.83061901  0.85963615  0.50330301     1.49100
Zn1370     Zn  0.73080343  0.92282265  0.50369663     1.49500
O1371       O  0.74001677  0.86666635  0.50497851    -1.83100
O1372       O  0.63555871  0.78967879  0.48801362    -0.73700
O1373       O  0.76476057  0.81847956  0.05067733    -0.73500
O1374       O  0.84693941  0.83873520  0.46752132    -0.73000
O1375       O  0.62243627  0.80051524  0.02688396    -0.73700
O1376       O  0.75473050  0.81679634  0.45331778    -0.73300
O1377       O  0.85322591  0.82711529  0.03079709    -0.73900
O1378       O  0.81813515  0.95492421  0.49898049    -0.73300
O1379       O  0.67012675  0.88057292  0.05676921    -0.74000
O1380       O  0.88436559  0.90945758  0.50494638    -0.73400
O1381       O  0.69343531  0.93557624  0.04050262    -0.73900
O1382       O  0.66833714  0.92816162  0.47187027    -0.73800
O1383       O  0.64609196  0.86839424  0.46003333    -0.73600
C1384       C  0.60539788  0.78673672  0.50815891     0.78200
C1385       C  0.82331970  0.81552838  0.04958769     0.78700
C1386       C  0.81137439  0.82492274  0.44969061     0.77700
C1387       C  0.87514586  0.94433710  0.50134706     0.78000
C1388       C  0.67528092  0.91606717  0.05879537     0.79200
C1389       C  0.63996376  0.90324667  0.45713569     0.78200
Zn1390     Zn  0.29783632  0.84925566  0.02869855     1.49700
Zn1391     Zn  0.25387474  0.92360064  0.49662506     1.49400
Zn1392     Zn  0.27478312  0.83339675  0.47603176     1.49100
Zn1393     Zn  0.15578620  0.86374244  0.50884059     1.49500
O1394       O  0.24419837  0.86781637  0.50202850    -1.85500
O1395       O  0.35786332  0.89078390  0.02859103    -0.73700
O1396       O  0.29425021  0.92638256  0.46038975    -0.73500
O1397       O  0.34726990  0.79446489  0.48467748    -0.73000
O1398       O  0.30091469  0.94041206  0.03336547    -0.73700
O1399       O  0.35143167  0.80022255  0.02556630    -0.73300
O1400       O  0.30136293  0.86553059  0.44881392    -0.73900
O1401       O  0.11779340  0.83955163  0.47703971    -0.73300
O1402       O  0.16705604  0.95477185  0.49493110    -0.74000
O1403       O  0.19802149  0.80977701  0.46063281    -0.73400
O1404       O  0.10435489  0.91168286  0.50852496    -0.73900
O1405       O  0.14749617  0.85099929  0.04492942    -0.73800
O1406       O  0.24663292  0.85269448  0.05970775    -0.73600
C1407       C  0.33938633  0.91722265  0.04287158     0.78200
C1408       C  0.30552687  0.89999256  0.44380247     0.78700
C1409       C  0.37144520  0.78519299  0.50589633     0.77700
C1410       C  0.14596221  0.82614075  0.45792021     0.78000
C1411       C  0.11208484  0.94480346  0.50114065     0.79200
C1412       C  0.18812824  0.85318031  0.06320511     0.78200
C1413       C  0.02164584  0.87372350  0.23220047     0.03400
C1414       C  0.96821513  0.85001482  0.22806230     0.03300
C1415       C  0.92947425  0.84485618  0.24862863    -0.17200
C1416       C  0.94830589  0.85703545  0.27330275     0.03400
C1417       C  0.00768094  0.87410367  0.27764139     0.03300
C1418       C  0.04198719  0.88436629  0.25699610    -0.17200
H1419       H  0.08588700  0.89923588  0.26028337     0.05400
H1420       H  0.88524771  0.83053860  0.24546407     0.05400
C1421       C  0.98428146  0.65273902  0.24282635     0.03400
C1422       C  0.04974803  0.64757123  0.24234553     0.03300
C1423       C  0.08471346  0.64562736  0.26515503    -0.17200
C1424       C  0.05617105  0.65077708  0.28855946     0.03400
C1425       C  0.99078521  0.65611854  0.28860857     0.03300
C1426       C  0.95584864  0.65703330  0.26598169    -0.17200
H1427       H  0.90616854  0.66165084  0.26641774     0.05400
H1428       H  0.13390430  0.63983487  0.26458148     0.05400
C1429       C  0.47469484  0.60689167  0.22188849     0.03400
C1430       C  0.53990920  0.60076824  0.22240473     0.03300
C1431       C  0.57142365  0.59766278  0.24582454    -0.17200
C1432       C  0.53970929  0.59997461  0.26864355     0.03400
C1433       C  0.47358208  0.60127359  0.26756661     0.03300
C1434       C  0.44248543  0.60632001  0.24441854    -0.17200
H1435       H  0.39224260  0.60891931  0.24385095     0.05400
H1436       H  0.62130546  0.59358537  0.24616452     0.05400
C1437       C  0.47489664  0.86877357  0.22386136     0.03400
C1438       C  0.54041422  0.87447803  0.22811315     0.03300
C1439       C  0.56503740  0.87549924  0.25319926    -0.17200
C1440       C  0.52625396  0.87200268  0.27399189     0.03400
C1441       C  0.46135855  0.86618280  0.26964385     0.03300
C1442       C  0.43672219  0.86503812  0.24478974    -0.17200
H1443       H  0.38665935  0.86448419  0.24198081     0.05400
H1444       H  0.61407722  0.88172248  0.25665599     0.05400
C1445       C  0.38492395  0.85463942  0.16006939    -0.10800
C1446       C  0.39352085  0.88993086  0.14980752     0.11800
C1447       C  0.42168662  0.91893387  0.16554671    -0.02600
C1448       C  0.44831494  0.91034286  0.18909030    -0.05300
C1449       C  0.44411514  0.87444755  0.19853673    -0.16100
C1450       C  0.40847752  0.84650892  0.18444394     0.02800
C1451       C  0.37687735  0.89526330  0.12228713     0.12700
C1452       C  0.41256148  0.46175607  0.15114179     0.63400
H1453       H  0.46246605  0.43672027  0.19483924     0.12800
C1454       C  0.39416263  0.80855742  0.19495415     0.55500
H1455       H  0.35850943  0.83360718  0.14891438     0.08600
C1456       C  0.41006108  0.87706000  0.10267240    -0.05200
C1457       C  0.39729721  0.88640470  0.07752502    -0.06000
C1458       C  0.35446327  0.91434325  0.07075966    -0.15600
C1459       C  0.32293549  0.93338237  0.09052278    -0.01100
C1460       C  0.33158609  0.92157967  0.11556484    -0.08700
C1461       C  0.45830303  0.84721937  0.10789236     0.65600
H1462       H  0.42128021  0.87127646  0.06273285     0.11000
C1463       C  0.28264599  0.96701127  0.08582222     0.64000
H1464       H  0.30342479  0.93348884  0.13027007     0.08400
F1465       F  0.36716419  0.78408842  0.17676280    -0.19100
F1466       F  0.35303737  0.81278242  0.21431099    -0.15300
F1467       F  0.44782542  0.79234300  0.20403801    -0.18800
F1468       F  0.35206662  0.47296809  0.14705502    -0.22200
F1469       F  0.44486789  0.46387480  0.12923769    -0.23700
F1470       F  0.43883437  0.48658202  0.16922589    -0.17600
F1471       F  0.23101857  0.95668840  0.07093615    -0.20100
F1472       F  0.31668951  0.99371371  0.07397085    -0.21300
F1473       F  0.26274188  0.98331877  0.10819080    -0.18500
F1474       F  0.49122863  0.83728523  0.08666764    -0.18600
F1475       F  0.42917981  0.81522214  0.11564335    -0.22400
F1476       F  0.50068270  0.86015346  0.12638952    -0.24000
C1477       C  0.40318582  0.85498372  0.33506194    -0.10800
C1478       C  0.38010143  0.89113739  0.34027540     0.11800
C1479       C  0.36716504  0.91431130  0.31982389    -0.02600
C1480       C  0.38813206  0.90344122  0.29573250    -0.05300
C1481       C  0.41859692  0.86931666  0.29137241    -0.16100
C1482       C  0.41839632  0.84287124  0.31045808     0.02800
C1483       C  0.35541282  0.89951606  0.36584498     0.12700
C1484       C  0.33025517  0.94982500  0.32341816     0.63400
H1485       H  0.38279814  0.92214358  0.28033529     0.12800
C1486       C  0.42693776  0.80127176  0.30498927     0.55500
H1487       H  0.40463996  0.83516564  0.34995665     0.08600
C1488       C  0.29992154  0.88222261  0.37315967    -0.05200
C1489       C  0.28321262  0.88583998  0.39853014    -0.06000
C1490       C  0.31888428  0.90696238  0.41686468    -0.15600
C1491       C  0.37066318  0.92769437  0.40898914    -0.01100
C1492       C  0.38871887  0.92332424  0.38348485    -0.08700
C1493       C  0.25659017  0.85952008  0.35505785     0.65600
H1494       H  0.24221462  0.87098442  0.40431333     0.11000
C1495       C  0.40641376  0.95382045  0.42748310     0.64000
H1496       H  0.42979449  0.93766365  0.37729316     0.08400
F1497       F  0.37330382  0.78250590  0.31125984    -0.19100
F1498       F  0.47590730  0.78806430  0.31932960    -0.15300
F1499       F  0.43734980  0.79295016  0.27980531    -0.18800
F1500       F  0.35483658  0.48230257  0.33724377    -0.22200
F1501       F  0.27533394  0.94250522  0.33526935    -0.23700
F1502       F  0.31606695  0.47593888  0.29741619    -0.17600
F1503       F  0.42630672  0.93486196  0.44832185    -0.20100
F1504       F  0.36812015  0.98267718  0.43525352    -0.21300
F1505       F  0.42643368  0.49662196  0.40518967    -0.18500
F1506       F  0.19838094  0.87507285  0.35592231    -0.18600
F1507       F  0.25440348  0.82295603  0.36245281    -0.22400
F1508       F  0.27287881  0.85881688  0.33010643    -0.24000
C1509       C  0.05725377  0.90821661  0.16821602    -0.10800
C1510       C  0.11804423  0.89500678  0.16515169     0.11800
C1511       C  0.15218234  0.88416992  0.18697732    -0.02600
C1512       C  0.11996206  0.87884469  0.20919574    -0.05300
C1513       C  0.05666473  0.88749411  0.21082251    -0.16100
C1514       C  0.02731476  0.90688217  0.19116523     0.02800
C1515       C  0.13950373  0.88642026  0.13891951     0.12700
C1516       C  0.22162003  0.87702331  0.18762218     0.63400
H1517       H  0.14388777  0.86643882  0.22500977     0.12800
C1518       C  0.96557243  0.92703828  0.19345027     0.55500
H1519       H  0.03156358  0.91886655  0.15249384     0.08600
C1520       C  0.13030100  0.91072469  0.11859905    -0.05200
C1521       C  0.14148614  0.89698666  0.09393485    -0.06000
C1522       C  0.16758697  0.86166330  0.08910377    -0.15600
C1523       C  0.18043691  0.83829138  0.10932662    -0.01100
C1524       C  0.16316079  0.85030638  0.13364422    -0.08700
C1525       C  0.11096830  0.95141664  0.12202443     0.65600
H1526       H  0.13281550  0.91487904  0.07824350     0.11000
C1527       C  0.21196272  0.80084070  0.10522998     0.64000
H1528       H  0.16805594  0.83126946  0.14881759     0.08400
F1529       F  0.92165227  0.91066944  0.17683470    -0.19100
F1530       F  0.97363832  0.96398368  0.18727698    -0.15300
F1531       F  0.94278939  0.92712928  0.21751813    -0.18800
F1532       F  0.25005240  0.88915360  0.16639047    -0.22200
F1533       F  0.23206101  0.83912325  0.18977545    -0.23700
F1534       F  0.24915164  0.89620677  0.20830989    -0.17600
F1535       F  0.21427439  0.78072464  0.12696220    -0.20100
F1536       F  0.27236506  0.80667981  0.09792654    -0.21300
F1537       F  0.17981886  0.77952984  0.08666177    -0.18500
F1538       F  0.14002019  0.97295876  0.10483037    -0.18600
F1539       F  0.12737510  0.96618056  0.14584457    -0.22400
F1540       F  0.04754006  0.95453130  0.11770224    -0.24000
C1541       C  0.05530645  0.83574800  0.33955104    -0.10800
C1542       C  0.06345120  0.86728094  0.35619862     0.11800
C1543       C  0.06404991  0.90327613  0.34509942    -0.02600
C1544       C  0.04438139  0.90571429  0.31938831    -0.05300
C1545       C  0.03787682  0.87339234  0.30339129    -0.16100
C1546       C  0.05231647  0.83869043  0.31346111     0.02800
C1547       C  0.08152859  0.85883860  0.38331165     0.12700
C1548       C  0.08887033  0.93913340  0.35828283     0.63400
H1549       H  0.03710773  0.93289284  0.31152589     0.12800
C1550       C  0.07250958  0.80500700  0.29776811     0.55500
H1551       H  0.05768553  0.80786095  0.34670667     0.08600
C1552       C  0.05661770  0.87551377  0.40571344    -0.05200
C1553       C  0.07917703  0.86409910  0.42943229    -0.06000
C1554       C  0.12166546  0.83452984  0.43199386    -0.15600
C1555       C  0.14464969  0.81719431  0.40974205    -0.01100
C1556       C  0.12465988  0.82981245  0.38630718    -0.08700
C1557       C  0.00582636  0.90455785  0.40617270     0.65600
H1558       H  0.06226209  0.87834606  0.44626181     0.11000
C1559       C  0.19024693  0.78528755  0.41017884     0.64000
H1560       H  0.14399722  0.81678752  0.36966008     0.08400
F1561       F  0.03668399  0.77436751  0.30308371    -0.19100
F1562       F  0.13386682  0.79805348  0.30426757    -0.15300
F1563       F  0.06917519  0.80991928  0.27215782    -0.18800
F1564       F  0.13173856  0.95563568  0.34316857    -0.22200
F1565       F  0.11885050  0.93301276  0.38105385    -0.23700
F1566       F  0.04076017  0.96394149  0.36208521    -0.17600
F1567       F  0.17009809  0.75960362  0.42665859    -0.20100
F1568       F  0.24897155  0.79841834  0.41764860    -0.21300
F1569       F  0.19437321  0.76701437  0.38685996    -0.18500
F1570       F  0.03034283  0.93894904  0.41458646    -0.18600
F1571       F  0.96014535  0.89468610  0.42247826    -0.22400
F1572       F  0.97785342  0.90780547  0.38286117    -0.24000
C1573       C  0.53257592  0.89204270  0.39914933    -0.10800
C1574       C  0.56923281  0.90903922  0.38126863     0.11800
C1575       C  0.62007953  0.93240117  0.39029814    -0.02600
C1576       C  0.63671033  0.93387405  0.41629991    -0.05300
C1577       C  0.60503739  0.91271082  0.43356289    -0.16100
C1578       C  0.55040436  0.89245233  0.42498454     0.02800
C1579       C  0.55837952  0.89839721  0.35353521     0.12700
C1580       C  0.65736837  0.95578629  0.37281268     0.63400
H1581       H  0.67776155  0.94950226  0.42307733     0.12800
C1582       C  0.51458600  0.86763281  0.44221471     0.55500
H1583       H  0.49214112  0.87586938  0.39249677     0.08600
C1584       C  0.56637028  0.86100899  0.34351763    -0.05200
C1585       C  0.56363375  0.85416688  0.31699350    -0.06000
C1586       C  0.54987509  0.88253288  0.30028440    -0.15600
C1587       C  0.54299467  0.91956794  0.31010064    -0.01100
C1588       C  0.54477128  0.92662570  0.33652329    -0.08700
C1589       C  0.57054598  0.82735028  0.36025860     0.65600
H1590       H  0.56777118  0.82593376  0.30906027     0.11000
C1591       C  0.57560522  0.44833026  0.28277511     0.64000
H1592       H  0.53564300  0.95449714  0.34407688     0.08400
F1593       F  0.54367724  0.83342880  0.44383225    -0.19100
F1594       F  0.45429868  0.86097517  0.43306971    -0.15300
F1595       F  0.51156408  0.88443813  0.46610296    -0.18800
F1596       F  0.62087147  0.98487999  0.36517846    -0.22200
F1597       F  0.67537954  0.93470372  0.35190473    -0.23700
F1598       F  0.71062364  0.97103492  0.38466073    -0.17600
F1599       F  0.58994348  0.48277355  0.29394395    -0.20100
F1600       F  0.52281757  0.45183220  0.26757710    -0.21300
F1601       F  0.62511884  0.43812098  0.26808903    -0.18500
F1602       F  0.51227589  0.81884889  0.36879573    -0.18600
F1603       F  0.61016388  0.83423516  0.38090134    -0.22400
F1604       F  0.59169443  0.79590735  0.34713799    -0.24000
C1605       C  0.61717186  0.87702079  0.16395532    -0.10800
C1606       C  0.63458846  0.91504423  0.16317968     0.11800
C1607       C  0.63212261  0.93748599  0.18605793    -0.02600
C1608       C  0.60536828  0.92205226  0.20739088    -0.05300
C1609       C  0.58189549  0.88515325  0.20706487    -0.16100
C1610       C  0.59307718  0.86141680  0.18563035     0.02800
C1611       C  0.64771404  0.92894055  0.13733041     0.12700
C1612       C  0.67098049  0.47048105  0.18622258     0.63400
H1613       H  0.60179814  0.43657877  0.21926080     0.12800
C1614       C  0.58217501  0.81946216  0.18474245     0.55500
H1615       H  0.62185969  0.85912687  0.14710751     0.08600
C1616       C  0.70837190  0.93499117  0.12792276    -0.05200
C1617       C  0.71519600  0.93672045  0.10150467    -0.06000
C1618       C  0.66413489  0.93286128  0.08436551    -0.15600
C1619       C  0.60387463  0.93253875  0.09391285    -0.01100
C1620       C  0.59653256  0.92929342  0.12003292    -0.08700
C1621       C  0.76686515  0.93947161  0.14465617     0.65600
H1622       H  0.76142546  0.93798244  0.09397340     0.11000
C1623       C  0.54774937  0.93411096  0.07614270     0.64000
H1624       H  0.55024126  0.92541908  0.12704107     0.08400
F1625       F  0.63565951  0.80169094  0.17700660    -0.19100
F1626       F  0.53433719  0.81018493  0.16755281    -0.15300
F1627       F  0.56806057  0.80624679  0.20798904    -0.18800
F1628       F  0.68890408  0.48600853  0.16419960    -0.22200
F1629       F  0.70602273  0.97870143  0.20653153    -0.23700
F1630       F  0.63307495  0.49572172  0.19869712    -0.17600
F1631       F  0.49490667  0.94376420  0.08898857    -0.20100
F1632       F  0.53821925  0.89968595  0.06369807    -0.21300
F1633       F  0.55751337  0.96086818  0.05853254    -0.18500
F1634       F  0.78039648  0.97718539  0.14885167    -0.18600
F1635       F  0.81716663  0.92319470  0.13298953    -0.22400
F1636       F  0.76059679  0.92330414  0.16759734    -0.24000
C1637       C  0.87674146  0.81439246  0.32966911    -0.10800
C1638       C  0.87734730  0.84603719  0.34627327     0.11800
C1639       C  0.88260329  0.88210521  0.33618686    -0.02600
C1640       C  0.89793841  0.88434277  0.31079463    -0.05300
C1641       C  0.90812703  0.85213583  0.29535642    -0.16100
C1642       C  0.89230032  0.81657331  0.30427182     0.02800
C1643       C  0.86107906  0.83995636  0.37274352     0.12700
C1644       C  0.86820824  0.91874439  0.35038607     0.63400
H1645       H  0.90605079  0.91169094  0.30328007     0.12800
C1646       C  0.88847885  0.78138724  0.28719757     0.55500
H1647       H  0.86222359  0.78782099  0.33666027     0.08600
C1648       C  0.79857762  0.84004814  0.37988962    -0.05200
C1649       C  0.78483958  0.83232067  0.40475904    -0.06000
C1650       C  0.83124135  0.82455678  0.42300752    -0.15600
C1651       C  0.89356440  0.82126974  0.41542693    -0.01100
C1652       C  0.90767712  0.82940440  0.39028556    -0.08700
C1653       C  0.74392343  0.84698943  0.36209802     0.65600
H1654       H  0.73665165  0.83388244  0.41013565     0.11000
C1655       C  0.94357034  0.80718096  0.43332187     0.64000
H1656       H  0.95500687  0.82720566  0.38408858     0.08400
F1657       F  0.83784301  0.78378894  0.27070923    -0.19100
F1658       F  0.88084970  0.74946395  0.30074398    -0.15300
F1659       F  0.94173484  0.77711737  0.27361427    -0.18800
F1660       F  0.85819495  0.91463205  0.37570814    -0.22200
F1661       F  0.81520073  0.93385003  0.33969936    -0.23700
F1662       F  0.91678500  0.94399676  0.34822306    -0.17600
F1663       F  0.99668493  0.79727101  0.42075892    -0.20100
F1664       F  0.92172437  0.77584994  0.44485262    -0.21300
F1665       F  0.95951238  0.83446484  0.45166898    -0.18500
F1666       F  0.70637853  0.87335081  0.37340253    -0.18600
F1667       F  0.71148203  0.81367980  0.35786614    -0.22400
F1668       F  0.75920896  0.86000346  0.33897319    -0.24000
C1669       C  0.85412919  0.77854365  0.11484615    -0.10800
C1670       C  0.90053404  0.80401500  0.12379964     0.11800
C1671       C  0.93040077  0.82634794  0.10606901    -0.02600
C1672       C  0.90983431  0.82425221  0.08063428    -0.05300
C1673       C  0.85657450  0.80358273  0.07279318    -0.16100
C1674       C  0.82882509  0.77951226  0.09006192     0.02800
C1675       C  0.91289073  0.80964429  0.15181830     0.12700
C1676       C  0.97986020  0.85493982  0.11428098     0.63400
H1677       H  0.93067556  0.84242575  0.06733414     0.12800
C1678       C  0.76884195  0.75793926  0.08354227     0.55500
H1679       H  0.83415406  0.76003559  0.12798706     0.08600
C1680       C  0.86905719  0.82643413  0.16824047    -0.05200
C1681       C  0.88898511  0.83852976  0.19290710    -0.06000
C1682       C  0.94975764  0.83253352  0.20237452    -0.15600
C1683       C  0.98958302  0.80977600  0.18719671    -0.01100
C1684       C  0.97107756  0.79997621  0.16203650    -0.08700
C1685       C  0.80140465  0.83158987  0.16007047     0.65600
H1686       H  0.85733619  0.85387021  0.20486346     0.11000
C1687       C  0.04916829  0.79209206  0.19662753     0.64000
H1688       H  0.00232456  0.78391911  0.15023936     0.08400
F1689       F  0.71862979  0.78167438  0.08552547    -0.19100
F1690       F  0.75977444  0.72971836  0.09992395    -0.15300
F1691       F  0.77014670  0.74196003  0.05935725    -0.18800
F1692       F  0.03109790  0.83702578  0.12399665    -0.22200
F1693       F  0.95576731  0.87901545  0.13234108    -0.23700
F1694       F  0.99911458  0.87603885  0.09460400    -0.17600
F1695       F  0.09886933  0.80536091  0.18364199    -0.20100
F1696       F  0.04500061  0.75372067  0.19198353    -0.21300
F1697       F  0.06060738  0.79860451  0.22211877    -0.18500
F1698       F  0.77262288  0.79706923  0.15581425    -0.18600
F1699       F  0.79766143  0.85121329  0.13824682    -0.22400
F1700       F  0.76843864  0.85077362  0.17840449    -0.24000
C1701       C  0.65061174  0.60810852  0.16734521    -0.10800
C1702       C  0.62885483  0.57826912  0.15145209     0.11800
C1703       C  0.58457400  0.55307736  0.16049710    -0.02600
C1704       C  0.55629121  0.56197693  0.18348376    -0.05300
C1705       C  0.57443450  0.59364920  0.19870632    -0.16100
C1706       C  0.62519637  0.61610851  0.19117647     0.02800
C1707       C  0.64329997  0.57782150  0.12414079     0.12700
C1708       C  0.55522992  0.01958370  0.13762522     0.63400
H1709       H  0.52080464  0.04569518  0.18185741     0.12800
C1710       C  0.65370966  0.64906838  0.20680644     0.55500
H1711       H  0.68531924  0.62641087  0.16027517     0.08600
C1712       C  0.60169745  0.59397094  0.10672503    -0.05200
C1713       C  0.60698483  0.58498809  0.08101711    -0.06000
C1714       C  0.65541352  0.56275240  0.07160273    -0.15600
C1715       C  0.70101738  0.54942885  0.08899706    -0.01100
C1716       C  0.69354830  0.55687572  0.11514598    -0.08700
C1717       C  0.55223348  0.62112010  0.11532521     0.65600
H1718       H  0.57326262  0.59623326  0.06789317     0.11000
C1719       C  0.75769297  0.52820741  0.08028589     0.64000
H1720       H  0.72544422  0.54529463  0.12885581     0.08400
F1721       F  0.65845150  0.67995272  0.19210810    -0.19100
F1722       F  0.71260784  0.63936991  0.21523849    -0.15300
F1723       F  0.62000243  0.65996928  0.22746363    -0.18800
F1724       F  0.58158265  0.01154116  0.11470008    -0.22200
F1725       F  0.50488100  0.52646787  0.13445788    -0.23700
F1726       F  0.55914644  0.98842799  0.15183391    -0.17600
F1727       F  0.79595666  0.51843667  0.10033751    -0.20100
F1728       F  0.79216550  0.55018535  0.06490614    -0.21300
F1729       F  0.73918238  0.49569830  0.06708099    -0.18500
F1730       F  0.51610054  0.63374260  0.09544366    -0.18600
F1731       F  0.58034957  0.65191442  0.12776084    -0.22400
F1732       F  0.51356430  0.60364233  0.13139561    -0.24000
C1733       C  0.58322875  0.60881572  0.33839699    -0.10800
C1734       C  0.62542710  0.57949060  0.34093075     0.11800
C1735       C  0.64961166  0.56188937  0.31889521    -0.02600
C1736       C  0.62036986  0.56892076  0.29550839    -0.05300
C1737       C  0.57541533  0.59716795  0.29315296    -0.16100
C1738       C  0.56413985  0.62076848  0.31466589     0.02800
C1739       C  0.64826237  0.57277410  0.36691850     0.12700
C1740       C  0.70857148  0.53864359  0.31852984     0.63400
H1741       H  0.63366026  0.55248707  0.27895877     0.12800
C1742       C  0.54085037  0.66065763  0.31358466     0.55500
H1743       H  0.57007702  0.62498353  0.35513210     0.08600
C1744       C  0.69574312  0.59581073  0.37828726    -0.05200
C1745       C  0.70903166  0.59305566  0.40409575    -0.06000
C1746       C  0.67292569  0.57067005  0.41933153    -0.15600
C1747       C  0.62661792  0.54671013  0.40801444    -0.01100
C1748       C  0.61548817  0.54765493  0.38161958    -0.08700
C1749       C  0.72872989  0.62555970  0.36380848     0.65600
H1750       H  0.74479673  0.61103445  0.41316276     0.11000
C1751       C  0.58624656  0.52301586  0.42400775     0.64000
H1752       H  0.57821384  0.53085342  0.37259252     0.08400
F1753       F  0.58740566  0.68480087  0.32311792    -0.19100
F1754       F  0.48977360  0.66538338  0.32849014    -0.15300
F1755       F  0.52574374  0.67084823  0.28936117    -0.18800
F1756       F  0.64419514  0.98976793  0.31515721    -0.22200
F1757       F  0.73642368  0.53544448  0.34210738    -0.23700
F1758       F  0.75096025  0.55562621  0.30344999    -0.17600
F1759       F  0.54840442  0.49879979  0.40930256    -0.20100
F1760       F  0.54934399  0.54602592  0.43869325    -0.21300
F1761       F  0.57435541  0.00583343  0.42670038    -0.18500
F1762       F  0.77607356  0.64236066  0.37828046    -0.18600
F1763       F  0.68746855  0.65310355  0.35713743    -0.22400
F1764       F  0.75432614  0.61014744  0.34229983    -0.24000
C1765       C  0.91428644  0.68576816  0.18158277    -0.10800
C1766       C  0.89747294  0.65165876  0.16901881     0.11800
C1767       C  0.89635381  0.61852104  0.18282848    -0.02600
C1768       C  0.92324086  0.61962955  0.20743718    -0.05300
C1769       C  0.94516716  0.65347693  0.21910032    -0.16100
C1770       C  0.93212073  0.68726979  0.20729413     0.02800
C1771       C  0.87577313  0.65173663  0.14212215     0.12700
C1772       C  0.86494898  0.58281375  0.17192198     0.63400
H1773       H  0.92812562  0.59412006  0.21760613     0.12800
C1774       C  0.92891452  0.72380054  0.22259766     0.55500
H1775       H  0.91087118  0.71136319  0.17143559     0.08600
C1776       C  0.81547826  0.66338184  0.13513208    -0.05200
C1777       C  0.79401319  0.65672373  0.11006348    -0.06000
C1778       C  0.83357976  0.64404299  0.09091507    -0.15600
C1779       C  0.89632915  0.63496305  0.09779136    -0.01100
C1780       C  0.91546407  0.63820947  0.12348271    -0.08700
C1781       C  0.77483031  0.68374673  0.15399086     0.65600
H1782       H  0.74605820  0.66273353  0.10514235     0.11000
C1783       C  0.94321087  0.62134088  0.07863778     0.64000
H1784       H  0.96197686  0.63037085  0.12937038     0.08400
F1785       F  0.88512714  0.72016356  0.24087480    -0.19100
F1786       F  0.91069536  0.75290793  0.20785046    -0.15300
F1787       F  0.98562462  0.73275516  0.23413251    -0.18800
F1788       F  0.89503785  0.56966887  0.15075874    -0.22200
F1789       F  0.80372366  0.58999063  0.16521268    -0.23700
F1790       F  0.86491176  0.55485750  0.18921308    -0.17600
F1791       F  0.99918681  0.61166294  0.09000893    -0.20100
F1792       F  0.95542371  0.64953034  0.06232667    -0.21300
F1793       F  0.92035612  0.58985910  0.06519222    -0.18500
F1794       F  0.71519578  0.68897532  0.14430621    -0.18600
F1795       F  0.80025003  0.71857572  0.16046965    -0.22400
F1796       F  0.77141988  0.66381975  0.17557257    -0.24000
C1797       C  0.91835206  0.64757595  0.40390992    -0.10800
C1798       C  0.89724595  0.67563199  0.38830681     0.11800
C1799       C  0.85316447  0.70161705  0.39736193    -0.02600
C1800       C  0.83979571  0.70231776  0.42310585    -0.05300
C1801       C  0.86282328  0.67485013  0.43912868    -0.16100
C1802       C  0.90040023  0.64564480  0.42893163     0.02800
C1803       C  0.91728535  0.67358350  0.36187561     0.12700
C1804       C  0.81589247  0.72612431  0.37989313     0.63400
H1805       H  0.80742474  0.72283893  0.43042131     0.12800
C1806       C  0.91686311  0.61062169  0.44317252     0.55500
H1807       H  0.94575771  0.62555604  0.39558616     0.08600
C1808       C  0.95511018  0.70138448  0.35137736    -0.05200
C1809       C  0.97355734  0.69555020  0.32655771    -0.06000
C1810       C  0.95870176  0.66255742  0.31248722    -0.15600
C1811       C  0.92128644  0.63465368  0.32274212    -0.01100
C1812       C  0.90103970  0.64078814  0.34740062    -0.08700
C1813       C  0.98041518  0.73664343  0.36522758     0.65600
H1814       H  0.00349632  0.71598817  0.31847992     0.11000
C1815       C  0.90414268  0.59833408  0.30803003     0.64000
H1816       H  0.87339236  0.61948533  0.35587334     0.08400
F1817       F  0.95336657  0.61990710  0.46441361    -0.19100
F1818       F  0.94978306  0.58507684  0.42862572    -0.15300
F1819       F  0.86290029  0.59285011  0.45013263    -0.18800
F1820       F  0.75780365  0.73361664  0.38933624    -0.22200
F1821       F  0.80673728  0.70921612  0.35611940    -0.23700
F1822       F  0.84700067  0.75941911  0.37767781    -0.17600
F1823       F  0.87476984  0.57305106  0.32289639    -0.20100
F1824       F  0.95686251  0.58137652  0.29884481    -0.21300
F1825       F  0.86419033  0.60582016  0.28803651    -0.18500
F1826       F  0.04453342  0.73690720  0.36539408    -0.18600
F1827       F  0.96226384  0.74049849  0.38975425    -0.22400
F1828       F  0.96082429  0.76740570  0.35269540    -0.24000
C1829       C  0.39156702  0.60614311  0.38168474    -0.10800
C1830       C  0.35001859  0.59325372  0.36234489     0.11800
C1831       C  0.29521953  0.57369746  0.36859999    -0.02600
C1832       C  0.28172915  0.57049329  0.39433276    -0.05300
C1833       C  0.32073179  0.58638413  0.41381300    -0.16100
C1834       C  0.37822297  0.60329269  0.40733549     0.02800
C1835       C  0.37177136  0.59492605  0.33603400     0.12700
C1836       C  0.26432045  0.05679462  0.34028314     0.63400
H1837       H  0.23921511  0.55666692  0.39946237     0.12800
C1838       C  0.42470683  0.61988930  0.42703382     0.55500
H1839       H  0.43486626  0.61892210  0.37632377     0.08600
C1840       C  0.36831031  0.62719422  0.32125699    -0.05200
C1841       C  0.39830164  0.62674189  0.29801979    -0.06000
C1842       C  0.43527856  0.59662080  0.29013473    -0.15600
C1843       C  0.43671563  0.56410679  0.30451103    -0.01100
C1844       C  0.40607200  0.56432152  0.32737982    -0.08700
C1845       C  0.33675872  0.66276296  0.33026355     0.65600
H1846       H  0.39680019  0.65112743  0.28657003     0.11000
C1847       C  0.47089043  0.52867148  0.29757321     0.64000
H1848       H  0.41133685  0.54068983  0.33934239     0.08400
F1849       F  0.47686048  0.63475559  0.41626831    -0.19100
F1850       F  0.44487057  0.59242857  0.44283897    -0.15300
F1851       F  0.39715360  0.64841976  0.44092701    -0.18800
F1852       F  0.29191919  0.03229864  0.32349117    -0.22200
F1853       F  0.27745152  0.53609556  0.33088036    -0.23700
F1854       F  0.21422499  0.03804411  0.34983854    -0.17600
F1855       F  0.51589401  0.52341048  0.31614721    -0.20100
F1856       F  0.49322593  0.02461684  0.26625995    -0.21300
F1857       F  0.39583369  0.03554527  0.25219341    -0.18500
F1858       F  0.34644729  0.69202297  0.31447399    -0.18600
F1859       F  0.36025855  0.67395160  0.35392439    -0.22400
F1860       F  0.27353706  0.65644522  0.33087931    -0.24000
C1861       C  0.42138928  0.63942753  0.15743972    -0.10800
C1862       C  0.37831679  0.61110534  0.14986915     0.11800
C1863       C  0.35837871  0.58586389  0.16793284    -0.02600
C1864       C  0.39107953  0.58522852  0.19126041    -0.05300
C1865       C  0.43817533  0.61169508  0.19797074    -0.16100
C1866       C  0.44879632  0.64152634  0.18176916     0.02800
C1867       C  0.36724069  0.60310953  0.12229717     0.12700
C1868       C  0.33861158  0.05646522  0.14550712     0.63400
H1869       H  0.39847629  0.06455178  0.19157495     0.12800
C1870       C  0.48743942  0.67625046  0.18899069     0.55500
H1871       H  0.43671526  0.65904266  0.14385517     0.08600
C1872       C  0.33819165  0.62827435  0.10591595    -0.05200
C1873       C  0.33625221  0.61896704  0.07980639    -0.06000
C1874       C  0.36135335  0.58530820  0.06984007    -0.15600
C1875       C  0.39152258  0.56085165  0.08615962    -0.01100
C1876       C  0.39236485  0.56988868  0.11210652    -0.08700
C1877       C  0.30597624  0.66327546  0.11597385     0.65600
H1878       H  0.31261165  0.63725733  0.06696177     0.11000
C1879       C  0.42496666  0.52579075  0.07738879     0.64000
H1880       H  0.41185529  0.55035128  0.12489300     0.08400
F1881       F  0.45322249  0.70775293  0.18380573    -0.19100
F1882       F  0.54008375  0.67648680  0.17478488    -0.15300
F1883       F  0.50449979  0.67875994  0.21428526    -0.18800
F1884       F  0.36668847  0.03098538  0.12935102    -0.22200
F1885       F  0.24975085  0.58754795  0.16355999    -0.23700
F1886       F  0.31490204  0.03776754  0.16546258    -0.17600
F1887       F  0.48737761  0.52945764  0.08416244    -0.20100
F1888       F  0.42034146  0.51873222  0.05161196    -0.21300
F1889       F  0.49477548  0.02479995  0.07543066    -0.18500
F1890       F  0.27059869  0.67975018  0.09736321    -0.18600
F1891       F  0.34932021  0.68949941  0.12530968    -0.22400
F1892       F  0.26682713  0.65417357  0.13503728    -0.24000
C1893       C  0.14344725  0.69209268  0.34646228    -0.10800
C1894       C  0.12554725  0.66762040  0.36495337     0.11800
C1895       C  0.09778737  0.63266680  0.35708794    -0.02600
C1896       C  0.08006923  0.62622134  0.33139348    -0.05300
C1897       C  0.09343684  0.65238192  0.31313560    -0.16100
C1898       C  0.13152962  0.68380839  0.32057713     0.02800
C1899       C  0.13552588  0.67920535  0.39231572     0.12700
C1900       C  0.08945750  0.60184575  0.37556309     0.63400
H1901       H  0.05385360  0.60120323  0.32548846     0.12800
C1902       C  0.16076746  0.70801335  0.30138059     0.55500
H1903       H  0.16570613  0.71833849  0.35240730     0.08600
C1904       C  0.19542314  0.68119355  0.40437092    -0.05200
C1905       C  0.20007958  0.68503202  0.43072721    -0.06000
C1906       C  0.14733866  0.68989609  0.44512448    -0.15600
C1907       C  0.08884119  0.69411148  0.43315667    -0.01100
C1908       C  0.08324401  0.68735011  0.40685356    -0.08700
C1909       C  0.25401475  0.67700056  0.38985628     0.65600
H1910       H  0.24474750  0.68232808  0.44047001     0.11000
C1911       C  0.03435390  0.70737971  0.44838814     0.64000
H1912       H  0.03779857  0.68694139  0.39765941     0.08400
F1913       F  0.20024250  0.68639927  0.28696691    -0.19100
F1914       F  0.19594897  0.73708390  0.31270913    -0.15300
F1915       F  0.11535476  0.72290899  0.28602604    -0.18800
F1916       F  0.05040024  0.61289920  0.39441621    -0.22200
F1917       F  0.14637934  0.59383615  0.38655576    -0.23700
F1918       F  0.06518183  0.56929128  0.36383821    -0.17600
F1919       F  0.98244620  0.71247435  0.43321758    -0.20100
F1920       F  0.04962429  0.74136489  0.46060570    -0.21300
F1921       F  0.01979132  0.68187071  0.46615906    -0.18500
F1922       F  0.30656742  0.67545119  0.40545158    -0.18600
F1923       F  0.26142512  0.70696243  0.37462896    -0.22400
F1924       F  0.24937531  0.64437509  0.37541346    -0.24000
C1925       C  0.12191610  0.66702995  0.18002488    -0.10800
C1926       C  0.09745187  0.63643402  0.16521694     0.11800
C1927       C  0.07053917  0.60565110  0.17767484    -0.02600
C1928       C  0.06452670  0.60881632  0.20387825    -0.05300
C1929       C  0.07997652  0.64183226  0.21773346    -0.16100
C1930       C  0.11352402  0.67039729  0.20618005     0.02800
C1931       C  0.10905370  0.63577646  0.13755109     0.12700
C1932       C  0.04899351  0.56860315  0.16477698     0.63400
H1933       H  0.04329598  0.58614421  0.21365251     0.12800
C1934       C  0.14392083  0.70285320  0.22141233     0.55500
H1935       H  0.14803104  0.68834981  0.17083217     0.08600
C1936       C  0.09619434  0.66593915  0.12147102    -0.05200
C1937       C  0.11892527  0.66425666  0.09672746    -0.06000
C1938       C  0.14788086  0.63199860  0.08674233    -0.15600
C1939       C  0.15495152  0.60049630  0.10245952    -0.01100
C1940       C  0.14032684  0.60484240  0.12777509    -0.08700
C1941       C  0.05977821  0.70044906  0.12941281     0.65600
H1942       H  0.11219623  0.68793329  0.08485830     0.11000
C1943       C  0.17718503  0.56172956  0.09357980     0.64000
H1944       H  0.15280938  0.58325655  0.14039234     0.08400
F1945       F  0.16975916  0.72899666  0.20614231    -0.19100
F1946       F  0.19095221  0.68926519  0.23663246    -0.15300
F1947       F  0.10126932  0.72097331  0.23625397    -0.18800
F1948       F  0.09692809  0.54312024  0.16584737    -0.22200
F1949       F  0.02971720  0.57261125  0.13999871    -0.23700
F1950       F  0.99941556  0.55354077  0.17708757    -0.17600
F1951       F  0.17814682  0.53650381  0.11267951    -0.20100
F1952       F  0.23687188  0.56390093  0.08504676    -0.21300
F1953       F  0.13733123  0.54687555  0.07468313    -0.18500
F1954       F  0.01761772  0.70913951  0.11038151    -0.18600
F1955       F  0.10049245  0.73040345  0.13383108    -0.22400
F1956       F  0.02630577  0.69535959  0.15078783    -0.24000
C1957       C  0.54479503  0.75753109  0.00732962     0.03400
C1958       C  0.54826916  0.72147155  0.50761168     0.03300
C1959       C  0.48941698  0.70235108  0.50675181    -0.17200
C1960       C  0.42998791  0.72050040  0.50653498     0.03400
C1961       C  0.42664142  0.75771736  0.00671061     0.03300
C1962       C  0.48606805  0.77616622  0.00731688    -0.17200
H1963       H  0.48668588  0.80655061  0.00728511     0.05400
H1964       H  0.49001225  0.67196980  0.50625434     0.05400
C1965       C  0.93628559  0.51318203  0.49864009     0.03400
C1966       C  0.93388180  0.97061175  0.49932655     0.03300
C1967       C  0.99359635  0.95228759  0.50090816    -0.17200
C1968       C  0.05406085  0.96987065  0.49912042     0.03400
C1969       C  0.05513411  0.51108178  0.49724571     0.03300
C1970       C  0.99697035  0.53050452  0.49755914    -0.17200
H1971       H  0.99954807  0.56080205  0.49725256     0.05400
H1972       H  0.99325074  0.92242816  0.50351955     0.05400
Zn1973     Zn  0.23811916  0.66901463  0.51542322     1.49700
Zn1974     Zn  0.32929994  0.61451298  0.49338007     1.49400
Zn1975     Zn  0.22337942  0.57584235  0.52389732     1.49100
Zn1976     Zn  0.18545021  0.59604526  0.97285035     1.49500
O1977       O  0.24311432  0.61565492  0.50161544    -1.83100
O1978       O  0.32461332  0.70018186  0.51859356    -0.73700
O1979       O  0.37035727  0.59772801  0.52558155    -0.73500
O1980       O  0.18875631  0.60436496  0.55145490    -0.73000
O1981       O  0.37481004  0.66502895  0.49100674    -0.73700
O1982       O  0.19294588  0.66628208  0.54976456    -0.73300
O1983       O  0.30186574  0.55675616  0.53929482    -0.73900
O1984       O  0.11870652  0.55280668  0.97740730    -0.73300
O1985       O  0.33964189  0.58485488  0.95997256    -0.74000
O1986       O  0.15451346  0.53493131  0.51494772    -0.73400
O1987       O  0.24393520  0.58912081  0.94249515    -0.73900
O1988       O  0.13262025  0.64086714  0.97044705    -0.73800
O1989       O  0.19133300  0.68894958  0.98553242    -0.73600
C1990       C  0.37244956  0.69485882  0.50500884     0.78200
C1991       C  0.34956281  0.57793600  0.54292416     0.78700
C1992       C  0.17874170  0.63643461  0.56119474     0.77700
C1993       C  0.11413229  0.53491270  0.49681884     0.78000
C1994       C  0.30303722  0.58481182  0.94051600     0.79200
C1995       C  0.15481380  0.67360085  0.96862402     0.78200
Zn1996     Zn  0.69332444  0.63832190  0.53152364     1.49700
Zn1997     Zn  0.74023519  0.56170392  0.49800382     1.49400
Zn1998     Zn  0.69843624  0.64058259  0.97780611     1.49100
Zn1999     Zn  0.83498878  0.62446256  0.51034463     1.49500
O2000       O  0.74559309  0.61876235  0.50449525    -1.83100
O2001       O  0.64287444  0.59264800  0.53225089    -0.73700
O2002       O  0.69190090  0.54522217  0.96246197    -0.73500
O2003       O  0.62841382  0.68202169  0.98566995    -0.73000
O2004       O  0.70371940  0.54418716  0.53140723    -0.73700
O2005       O  0.62791629  0.68265650  0.52756983    -0.73300
O2006       O  0.66218011  0.60323600  0.95279136    -0.73900
O2007       O  0.85734229  0.64899329  0.98161515    -0.73300
O2008       O  0.82407844  0.53019018  0.49531403    -0.74000
O2009       O  0.77007042  0.66069946  0.95931140    -0.73400
O2010       O  0.89011204  0.57509188  0.50709343    -0.73900
O2011       O  0.84720539  0.64533890  0.54641575    -0.73800
O2012       O  0.75186642  0.64508897  0.56207991    -0.73600
C2013       C  0.66910787  0.56661032  0.54377033     0.78200
C2014       C  0.66964094  0.56863071  0.94691539     0.78700
C2015       C  0.60701922  0.69727380  0.50742327     0.77700
C2016       C  0.82934279  0.66047406  0.96187192     0.78000
C2017       C  0.88028063  0.54041354  0.50054124     0.79200
C2018       C  0.81115953  0.64788838  0.56513771     0.78200
Zn2019     Zn  0.68342470  0.83568119  0.97790004     1.49700
Zn2020     Zn  0.69944653  0.84367118  0.53315542     1.49400
Zn2021     Zn  0.82314795  0.85733237  0.00044497     1.49100
Zn2022     Zn  0.72589057  0.92135776  0.00423190     1.49500
O2023       O  0.73281079  0.86504974  0.00386528    -1.83100
O2024       O  0.62437477  0.79104346  0.98580924    -0.73700
O2025       O  0.76489065  0.81636165  0.55094664    -0.73500
O2026       O  0.83362410  0.83443966  0.96477057    -0.73000
O2027       O  0.62079991  0.80810887  0.52730819    -0.73700
O2028       O  0.73800852  0.81999841  0.95038018    -0.73300
O2029       O  0.85561521  0.82734476  0.53331646    -0.73900
O2030       O  0.81338479  0.95300637  0.99974033    -0.73300
O2031       O  0.68109667  0.88458825  0.55800041    -0.74000
O2032       O  0.87867528  0.90626220  0.00052217    -0.73400
O2033       O  0.69863305  0.93922207  0.54017226    -0.73900
O2034       O  0.66382802  0.93037306  0.97345786    -0.73800
O2035       O  0.63196639  0.87236947  0.96106497    -0.73600
C2036       C  0.60195244  0.78284602  0.00683270     0.78200
C2037       C  0.82357770  0.81363846  0.55086978     0.78700
C2038       C  0.79589180  0.82336038  0.94684689     0.77700
C2039       C  0.87006383  0.94162473  0.99929029     0.78000
C2040       C  0.68423743  0.92017353  0.55931211     0.79200
C2041       C  0.63112168  0.90756314  0.95878038     0.78200
Zn2042     Zn  0.29733086  0.84932028  0.52913902     1.49700
Zn2043     Zn  0.25191148  0.92507748  0.99862940     1.49400
Zn2044     Zn  0.28191113  0.83754028  0.97619266     1.49100
Zn2045     Zn  0.15525822  0.86199500  0.00741165     1.49500
O2046       O  0.24405068  0.86851078  0.00211121    -1.85500
O2047       O  0.35874927  0.89003594  0.52976887    -0.73700
O2048       O  0.29170751  0.93060910  0.96282743    -0.73500
O2049       O  0.34677072  0.79360090  0.98423885    -0.73000
O2050       O  0.30202719  0.94030881  0.53103116    -0.73700
O2051       O  0.35183580  0.80111588  0.52607546    -0.73300
O2052       O  0.31843577  0.87169686  0.95207546    -0.73900
O2053       O  0.12126391  0.83070916  0.97686263    -0.73300
O2054       O  0.16371004  0.95496634  0.99653475    -0.74000
O2055       O  0.20871761  0.82319182  0.95550334    -0.73400
O2056       O  0.10003514  0.90849096  0.00366682    -0.73900
O2057       O  0.14626148  0.84727944  0.54474843    -0.73800
O2058       O  0.24468405  0.85265028  0.55997048    -0.73600
C2059       C  0.33936051  0.91813456  0.54222414     0.78200
C2060       C  0.31238682  0.90598321  0.94681389     0.78700
C2061       C  0.36973536  0.78340627  0.00545024     0.77700
C2062       C  0.14972748  0.82415931  0.95628201     0.78000
C2063       C  0.10765728  0.94292446  0.99901331     0.79200
C2064       C  0.18602024  0.85117419  0.56318964     0.78200
C2065       C  0.02282473  0.87695019  0.73232688     0.03400
C2066       C  0.96921098  0.85349097  0.72802173     0.03300
C2067       C  0.93126003  0.84689260  0.74851112    -0.17200
C2068       C  0.95133105  0.85651446  0.77335795     0.03400
C2069       C  0.01107606  0.87307129  0.77782140     0.03300
C2070       C  0.04453300  0.88529082  0.75732460    -0.17200
H2071       H  0.08862328  0.89984841  0.76083004     0.05400
H2072       H  0.88674244  0.83309586  0.74508093     0.05400
C2073       C  0.98369248  0.65289300  0.74293238     0.03400
C2074       C  0.04917079  0.64828560  0.74175491     0.03300
C2075       C  0.08466664  0.64346630  0.76408030    -0.17200
C2076       C  0.05696040  0.64614575  0.78777652     0.03400
C2077       C  0.99159298  0.65153814  0.78866428     0.03300
C2078       C  0.95581835  0.65446654  0.76636117    -0.17200
H2079       H  0.90621717  0.65920436  0.76728620     0.05400
H2080       H  0.13377709  0.63770236  0.76294884     0.05400
C2081       C  0.48234084  0.60367983  0.72247664     0.03400
C2082       C  0.54820551  0.60081558  0.72261709     0.03300
C2083       C  0.58147741  0.59883577  0.74572253    -0.17200
C2084       C  0.55059475  0.59880414  0.76862430     0.03400
C2085       C  0.48460835  0.59624379  0.76801647     0.03300
C2086       C  0.45142625  0.60019548  0.74513120    -0.17200
H2087       H  0.40097878  0.60025666  0.74493829     0.05400
H2088       H  0.63181809  0.59739281  0.74581236     0.05400
C2089       C  0.46853684  0.88660379  0.72497012     0.03400
C2090       C  0.53446973  0.89089369  0.72890896     0.03300
C2091       C  0.55969450  0.89044507  0.75385457    -0.17200
C2092       C  0.52124515  0.88701987  0.77475691     0.03400
C2093       C  0.45594810  0.88375826  0.77065877     0.03300
C2094       C  0.43062395  0.88382959  0.74600822    -0.17200
H2095       H  0.38049395  0.88385118  0.74335917     0.05400
H2096       H  0.60934230  0.89457168  0.75712478     0.05400
C2097       C  0.37912699  0.86645762  0.66182221    -0.10800
C2098       C  0.38543132  0.90113254  0.65049908     0.11800
C2099       C  0.41137604  0.93174899  0.66524651    -0.02600
C2100       C  0.43933913  0.92549659  0.68899226    -0.05300
C2101       C  0.43707702  0.89033123  0.69963104    -0.16100
C2102       C  0.40218372  0.86090903  0.68667527     0.02800
C2103       C  0.37139052  0.90412463  0.62263151     0.12700
C2104       C  0.41844038  0.46538344  0.65500905     0.63400
H2105       H  0.47654340  0.43734186  0.69613995     0.12800
C2106       C  0.38741480  0.82428855  0.69899540     0.55500
H2107       H  0.35540182  0.84385889  0.65106622     0.08600
C2108       C  0.41219897  0.88891092  0.60454643    -0.05200
C2109       C  0.40180049  0.89633722  0.57890249    -0.06000
C2110       C  0.35257666  0.91889906  0.57029379    -0.15600
C2111       C  0.31265812  0.93492631  0.58851656    -0.01100
C2112       C  0.32131655  0.92591317  0.61415355    -0.08700
C2113       C  0.46586043  0.86392447  0.61212912     0.65600
H2114       H  0.43205744  0.88359506  0.56514253     0.11000
C2115       C  0.26130604  0.96154689  0.58129548     0.64000
H2116       H  0.28886872  0.93616178  0.62787003     0.08400
F2117       F  0.36493559  0.79723620  0.68150264    -0.19100
F2118       F  0.34249840  0.83032289  0.71672546    -0.15300
F2119       F  0.43957291  0.81016174  0.71080642    -0.18800
F2120       F  0.35693991  0.47558013  0.65434595    -0.22200
F2121       F  0.44387296  0.47016878  0.63180393    -0.23700
F2122       F  0.44852505  0.48914180  0.67277507    -0.17600
F2123       F  0.21609217  0.94259401  0.56666297    -0.20100
F2124       F  0.28462917  0.99049174  0.56779621    -0.21300
F2125       F  0.23445350  0.97743082  0.60244432    -0.18500
F2126       F  0.50559157  0.85692798  0.59249602    -0.18600
F2127       F  0.44278316  0.82996674  0.61948741    -0.22400
F2128       F  0.50034799  0.88062682  0.63192831    -0.24000
C2129       C  0.39493910  0.86749952  0.83495348    -0.10800
C2130       C  0.37444852  0.90378327  0.84186952     0.11800
C2131       C  0.36356238  0.92932123  0.82261030    -0.02600
C2132       C  0.38582009  0.92069364  0.79837497    -0.05300
C2133       C  0.41407322  0.88625763  0.79256970    -0.16100
C2134       C  0.41056191  0.85762321  0.81003791     0.02800
C2135       C  0.35095664  0.91043748  0.86785390     0.12700
C2136       C  0.32440470  0.96377785  0.82728092     0.63400
H2137       H  0.38195261  0.94088904  0.78384526     0.12800
C2138       C  0.41589886  0.81633132  0.80242316     0.55500
H2139       H  0.39427924  0.84601655  0.84874435     0.08600
C2140       C  0.30152606  0.88846039  0.87615669    -0.05200
C2141       C  0.28981581  0.88889349  0.90203379    -0.06000
C2142       C  0.32107226  0.91368000  0.91963086    -0.15600
C2143       C  0.36171790  0.94098944  0.91045260    -0.01100
C2144       C  0.37918129  0.93747253  0.88485819    -0.08700
C2145       C  0.25862245  0.86513667  0.85832295     0.65600
H2146       H  0.25485343  0.86980693  0.90860044     0.11000
C2147       C  0.38552682  0.97344944  0.92735463     0.64000
H2148       H  0.41563870  0.95531079  0.87815259     0.08400
F2149       F  0.35824874  0.79935403  0.80451947    -0.19100
F2150       F  0.45780928  0.79904111  0.81820982    -0.15300
F2151       F  0.43415796  0.81048632  0.77783193    -0.18800
F2152       F  0.36160714  0.48117872  0.83631045    -0.22200
F2153       F  0.26801179  0.95327343  0.83685570    -0.23700
F2154       F  0.33337886  0.47656465  0.79523669    -0.17600
F2155       F  0.42454017  0.96068920  0.94617740    -0.20100
F2156       F  0.33583158  0.99166628  0.93813956    -0.21300
F2157       F  0.42778912  0.48691067  0.91008386    -0.18500
F2158       F  0.19864999  0.87448923  0.86355752    -0.18600
F2159       F  0.26758905  0.82747880  0.86191699    -0.22400
F2160       F  0.26548801  0.87159182  0.83308208    -0.24000
C2161       C  0.05260565  0.91043972  0.66763199    -0.10800
C2162       C  0.11389504  0.89856019  0.66404181     0.11800
C2163       C  0.15057396  0.89085389  0.68590687    -0.02600
C2164       C  0.12048653  0.88505179  0.70862496    -0.05300
C2165       C  0.05664360  0.89192470  0.71081883    -0.16100
C2166       C  0.02519472  0.91023951  0.69115121     0.02800
C2167       C  0.13447145  0.88831734  0.63777570     0.12700
C2168       C  0.22083054  0.88882672  0.68608194     0.63400
H2169       H  0.14675310  0.87416644  0.72440862     0.12800
C2170       C  0.96438572  0.93101675  0.69415825     0.55500
H2171       H  0.02479726  0.91991785  0.65209017     0.08600
C2172       C  0.11993565  0.90961934  0.61627532    -0.05200
C2173       C  0.13152458  0.89385444  0.59217906    -0.06000
C2174       C  0.16357812  0.86012400  0.58873469    -0.15600
C2175       C  0.18005064  0.83933226  0.60981965    -0.01100
C2176       C  0.16316804  0.85311125  0.63387019    -0.08700
C2177       C  0.09348192  0.94905235  0.61758086     0.65600
H2178       H  0.11817265  0.90915735  0.57569893     0.11000
C2179       C  0.21329976  0.80221035  0.60667376     0.64000
H2180       H  0.17188272  0.83601511  0.64986425     0.08400
F2181       F  0.91847553  0.91458897  0.67850075    -0.19100
F2182       F  0.97276234  0.96760973  0.68723714    -0.15300
F2183       F  0.94449988  0.93217147  0.71869201    -0.18800
F2184       F  0.24490530  0.90194860  0.66426887    -0.22200
F2185       F  0.23909965  0.85223587  0.68887983    -0.23700
F2186       F  0.24548679  0.91088069  0.70608188    -0.17600
F2187       F  0.21847437  0.78400989  0.62912919    -0.20100
F2188       F  0.27263622  0.80820978  0.59822298    -0.21300
F2189       F  0.18062208  0.77895956  0.58931586    -0.18500
F2190       F  0.11739806  0.97035399  0.59894559    -0.18600
F2191       F  0.10804224  0.96753926  0.64045764    -0.22400
F2192       F  0.02965524  0.94746922  0.61356016    -0.24000
C2193       C  0.06168539  0.83060068  0.83815056    -0.10800
C2194       C  0.06726334  0.86115954  0.85565512     0.11800
C2195       C  0.06749199  0.89791192  0.84567423    -0.02600
C2196       C  0.04861144  0.90183703  0.82005157    -0.05300
C2197       C  0.04198753  0.87044546  0.80325477    -0.16100
C2198       C  0.05690609  0.83502466  0.81225406     0.02800
C2199       C  0.08146465  0.85115734  0.88274072     0.12700
C2200       C  0.09026765  0.93325915  0.86011208     0.63400
H2201       H  0.04110998  0.92949981  0.81296463     0.12800
C2202       C  0.07388782  0.80158932  0.79561757     0.55500
H2203       H  0.06561912  0.80234963  0.84452069     0.08600
C2204       C  0.05222069  0.86611780  0.90472443    -0.05200
C2205       C  0.07190638  0.85387105  0.92862567    -0.06000
C2206       C  0.11652168  0.82560347  0.93147698    -0.15600
C2207       C  0.14232583  0.80910551  0.90954221    -0.01100
C2208       C  0.12551780  0.82266566  0.88607513    -0.08700
C2209       C  0.00177451  0.89539424  0.90442028     0.65600
H2210       H  0.05377469  0.86775324  0.94537103     0.11000
C2211       C  0.19187687  0.77922845  0.90979484     0.64000
H2212       H  0.14917769  0.81104436  0.86985570     0.08400
F2213       F  0.03754289  0.77121559  0.80112307    -0.19100
F2214       F  0.13552909  0.79334417  0.80067552    -0.15300
F2215       F  0.06750568  0.80761108  0.77026788    -0.18800
F2216       F  0.13316952  0.95154003  0.84593229    -0.22200
F2217       F  0.11936377  0.92599592  0.88288674    -0.23700
F2218       F  0.04091788  0.95704688  0.86421720    -0.17600
F2219       F  0.19479593  0.76097937  0.93214644    -0.20100
F2220       F  0.24930450  0.79530331  0.90581883    -0.21300
F2221       F  0.17883123  0.75279037  0.89065390    -0.18500
F2222       F  0.02595288  0.92970305  0.91315897    -0.18600
F2223       F  0.95439773  0.88597177  0.91998700    -0.22400
F2224       F  0.97593818  0.89856345  0.88071265    -0.24000
C2225       C  0.53099597  0.90148717  0.89913945    -0.10800
C2226       C  0.57539216  0.91311260  0.88210479     0.11800
C2227       C  0.63090975  0.93115217  0.89199080    -0.02600
C2228       C  0.63965956  0.93652480  0.91829239    -0.05300
C2229       C  0.60033907  0.91953927  0.93507648    -0.16100
C2230       C  0.54389015  0.90250791  0.92540700     0.02800
C2231       C  0.56310580  0.90511257  0.85441483     0.12700
C2232       C  0.68576539  0.94211193  0.87644212     0.63400
H2233       H  0.68305666  0.94906823  0.92565784     0.12800
C2234       C  0.50018821  0.88209220  0.94227391     0.55500
H2235       H  0.48822688  0.88859019  0.89158997     0.08600
C2236       C  0.56125076  0.86807358  0.84328457    -0.05200
C2237       C  0.55502168  0.86334126  0.81671402    -0.06000
C2238       C  0.54684562  0.89387069  0.80119756    -0.15600
C2239       C  0.54904025  0.93055433  0.81230172    -0.01100
C2240       C  0.55627794  0.93564033  0.83872529    -0.08700
C2241       C  0.55906167  0.83327808  0.85894862     0.65600
H2242       H  0.55216655  0.83548185  0.80790232     0.11000
C2243       C  0.59490247  0.44843886  0.78051119     0.64000
H2244       H  0.55774228  0.96365160  0.84740545     0.08400
F2245       F  0.52286075  0.84691447  0.94699746    -0.19100
F2246       F  0.44179249  0.87729390  0.93095854    -0.15300
F2247       F  0.49402856  0.90218381  0.96489397    -0.18800
F2248       F  0.69341284  0.98054778  0.87792062    -0.22200
F2249       F  0.68018492  0.93034272  0.85139626    -0.23700
F2250       F  0.73892665  0.92622549  0.88639853    -0.17600
F2251       F  0.60914884  0.48341556  0.79064738    -0.20100
F2252       F  0.54399374  0.45133653  0.76418552    -0.21300
F2253       F  0.64583109  0.43676425  0.76713248    -0.18500
F2254       F  0.49898107  0.82731125  0.86644584    -0.18600
F2255       F  0.59743545  0.83671749  0.88027995    -0.22400
F2256       F  0.57712660  0.80181521  0.84502591    -0.24000
C2257       C  0.61534686  0.88641668  0.66538175    -0.10800
C2258       C  0.63871585  0.92321462  0.66395962     0.11800
C2259       C  0.63792980  0.94701946  0.68627560    -0.02600
C2260       C  0.60633116  0.93457116  0.70750876    -0.05300
C2261       C  0.57709820  0.89910717  0.70765666    -0.16100
C2262       C  0.58716762  0.87350611  0.68708786     0.02800
C2263       C  0.65509010  0.93510474  0.63790724     0.12700
C2264       C  0.67963253  0.47165687  0.68549513     0.63400
H2265       H  0.61509790  0.43621136  0.71874553     0.12800
C2266       C  0.57113540  0.83215719  0.68736404     0.55500
H2267       H  0.61877580  0.86734489  0.64904160     0.08600
C2268       C  0.71659010  0.93827256  0.62872633    -0.05200
C2269       C  0.72459382  0.93919344  0.60233139    -0.06000
C2270       C  0.67395538  0.93759756  0.58487484    -0.15600
C2271       C  0.61347816  0.93996713  0.59419465    -0.01100
C2272       C  0.60494371  0.93770700  0.62036573    -0.08700
C2273       C  0.77515394  0.94092563  0.64544365     0.65600
H2274       H  0.77122350  0.93822446  0.59512915     0.11000
C2275       C  0.55848609  0.94495284  0.57623902     0.64000
H2276       H  0.55830954  0.93763702  0.62739261     0.08400
F2277       F  0.62132541  0.81142465  0.67928472    -0.19100
F2278       F  0.52085892  0.82419461  0.67112664    -0.15300
F2279       F  0.55789354  0.82096450  0.71121966    -0.18800
F2280       F  0.69836817  0.48774676  0.66382911    -0.22200
F2281       F  0.72263136  0.98240229  0.70452781    -0.23700
F2282       F  0.64154178  0.49656509  0.69816068    -0.17600
F2283       F  0.50422973  0.95084274  0.58904252    -0.20100
F2284       F  0.55044587  0.91357789  0.56027337    -0.21300
F2285       F  0.56918045  0.97581629  0.56201331    -0.18500
F2286       F  0.79834092  0.97722418  0.64565907    -0.18600
F2287       F  0.82008689  0.91732398  0.63593969    -0.22400
F2288       F  0.76501814  0.93160828  0.66991962    -0.24000
C2289       C  0.87488108  0.80806819  0.82684387    -0.10800
C2290       C  0.87091173  0.83825695  0.84438531     0.11800
C2291       C  0.87877342  0.87524065  0.83614972    -0.02600
C2292       C  0.89962584  0.87996164  0.81169809    -0.05300
C2293       C  0.91145646  0.84927889  0.79521193    -0.16100
C2294       C  0.89373401  0.81287801  0.80215111     0.02800
C2295       C  0.85073119  0.82985493  0.86997326     0.12700
C2296       C  0.86228244  0.91042939  0.85141403     0.63400
H2297       H  0.90927721  0.90801255  0.80564679     0.12800
C2298       C  0.89088301  0.77953808  0.78364099     0.55500
H2299       H  0.86056574  0.78063400  0.83238392     0.08600
C2300       C  0.78726603  0.82745435  0.87569336    -0.05200
C2301       C  0.77148752  0.82358585  0.90088776    -0.06000
C2302       C  0.81682262  0.81940423  0.92032517    -0.15600
C2303       C  0.87990826  0.81580807  0.91378020    -0.01100
C2304       C  0.89611869  0.82235713  0.88870965    -0.08700
C2305       C  0.73416528  0.82868442  0.85625762     0.65600
H2306       H  0.72263948  0.82464918  0.90533472     0.11000
C2307       C  0.92893541  0.80326063  0.93273394     0.64000
H2308       H  0.94440887  0.82161442  0.88353878     0.08400
F2309       F  0.84139588  0.78370693  0.76679914    -0.19100
F2310       F  0.88218470  0.74611777  0.79546538    -0.15300
F2311       F  0.94528156  0.77698481  0.77077090    -0.18800
F2312       F  0.85330794  0.90407553  0.87652802    -0.22200
F2313       F  0.80829317  0.92486933  0.84115899    -0.23700
F2314       F  0.90910613  0.93711614  0.85011602    -0.17600
F2315       F  0.98336850  0.79350206  0.92118895    -0.20100
F2316       F  0.90700661  0.77224143  0.94460745    -0.21300
F2317       F  0.94324964  0.83141552  0.95066408    -0.18500
F2318       F  0.69753376  0.85891969  0.86216544    -0.18600
F2319       F  0.69930262  0.79603169  0.85712466    -0.22400
F2320       F  0.75229027  0.83201308  0.83174127    -0.24000
C2321       C  0.84985640  0.77878006  0.61715358    -0.10800
C2322       C  0.89880585  0.80287212  0.62523397     0.11800
C2323       C  0.93082332  0.82262638  0.60682849    -0.02600
C2324       C  0.91107557  0.81863533  0.58141635    -0.05300
C2325       C  0.85482803  0.80056251  0.57427513    -0.16100
C2326       C  0.82387245  0.77939491  0.59248873     0.02800
C2327       C  0.91159079  0.81019500  0.65297637     0.12700
C2328       C  0.98066831  0.85139512  0.61416206     0.63400
H2329       H  0.93493852  0.83423008  0.56749548     0.12800
C2330       C  0.76137587  0.75990631  0.58705477     0.55500
H2331       H  0.82795195  0.76250819  0.63101568     0.08600
C2332       C  0.86860377  0.82855749  0.66904973    -0.05200
C2333       C  0.88961032  0.84199172  0.69323948    -0.06000
C2334       C  0.95065122  0.83621257  0.70246464    -0.15600
C2335       C  0.99003388  0.81274631  0.68763358    -0.01100
C2336       C  0.97017187  0.80116158  0.66301927    -0.08700
C2337       C  0.80032942  0.83302056  0.66144814     0.65600
H2338       H  0.85836605  0.85778452  0.70513242     0.11000
C2339       C  0.05080042  0.79625989  0.69689061     0.64000
H2340       H  0.00072622  0.78419497  0.65147986     0.08400
F2341       F  0.71432014  0.78587162  0.58576459    -0.19100
F2342       F  0.74617520  0.73666758  0.60601832    -0.15300
F2343       F  0.76289639  0.73861702  0.56471268    -0.18800
F2344       F  0.03223894  0.83398242  0.62404204    -0.22200
F2345       F  0.95713197  0.87648560  0.63175590    -0.23700
F2346       F  0.99904775  0.87136911  0.59384120    -0.17600
F2347       F  0.09930876  0.81023634  0.68353327    -0.20100
F2348       F  0.04847454  0.75776388  0.69268523    -0.21300
F2349       F  0.06289796  0.80338871  0.72221957    -0.18500
F2350       F  0.77040437  0.79862453  0.66152824    -0.18600
F2351       F  0.79405792  0.84704237  0.63768755    -0.22400
F2352       F  0.77021111  0.85696889  0.67810349    -0.24000
C2353       C  0.65427783  0.61253104  0.66681967    -0.10800
C2354       C  0.63554571  0.58150144  0.65137677     0.11800
C2355       C  0.59451107  0.55472280  0.66073878    -0.02600
C2356       C  0.56670431  0.56259908  0.68391345    -0.05300
C2357       C  0.58193380  0.59514368  0.69875055    -0.16100
C2358       C  0.62905954  0.61978489  0.69073980     0.02800
C2359       C  0.64959902  0.58099882  0.62411377     0.12700
C2360       C  0.55377829  0.02467671  0.64472743     0.63400
H2361       H  0.52029058  0.05678068  0.68795028     0.12800
C2362       C  0.65375543  0.65405944  0.70615048     0.55500
H2363       H  0.68562872  0.63210276  0.65925431     0.08600
C2364       C  0.60641229  0.59560568  0.60671921    -0.05200
C2365       C  0.61228351  0.58668234  0.58109155    -0.06000
C2366       C  0.66363495  0.56711749  0.57171386    -0.15600
C2367       C  0.71105339  0.55585630  0.58909923    -0.01100
C2368       C  0.70212822  0.56218941  0.61523217    -0.08700
C2369       C  0.55481294  0.62120702  0.61527081     0.65600
H2370       H  0.57708462  0.59635090  0.56795413     0.11000
C2371       C  0.77162344  0.53888357  0.58048141     0.64000
H2372       H  0.73530114  0.55193674  0.62898525     0.08400
F2373       F  0.65843090  0.68440518  0.69095350    -0.19100
F2374       F  0.71217551  0.64624721  0.71603772    -0.15300
F2375       F  0.61656001  0.66487678  0.72579781    -0.18800
F2376       F  0.58304749  0.01245574  0.62327815    -0.22200
F2377       F  0.52153629  0.52791534  0.63119310    -0.23700
F2378       F  0.55225269  0.99557655  0.66092644    -0.17600
F2379       F  0.81118453  0.53122220  0.60065388    -0.20100
F2380       F  0.80202907  0.56362540  0.56563418    -0.21300
F2381       F  0.75987641  0.50575653  0.56674499    -0.18500
F2382       F  0.51728731  0.63244562  0.59537815    -0.18600
F2383       F  0.58025393  0.65293088  0.62756992    -0.22400
F2384       F  0.51822334  0.60267076  0.63152160    -0.24000
C2385       C  0.59662262  0.61549735  0.83762052    -0.10800
C2386       C  0.63587164  0.58504921  0.84143557     0.11800
C2387       C  0.66050129  0.56555574  0.82018039    -0.02600
C2388       C  0.63275187  0.57128338  0.79631550    -0.05300
C2389       C  0.58737712  0.59892089  0.79292804    -0.16100
C2390       C  0.57609241  0.62461612  0.81334933     0.02800
C2391       C  0.64975886  0.57508457  0.86782279     0.12700
C2392       C  0.71782586  0.54087568  0.82121515     0.63400
H2393       H  0.64635336  0.55379952  0.78028060     0.12800
C2394       C  0.54855086  0.66322374  0.81034020     0.55500
H2395       H  0.58325204  0.63291937  0.85374282     0.08600
C2396       C  0.70099159  0.59094739  0.88167542    -0.05200
C2397       C  0.71145130  0.58080105  0.90663775    -0.06000
C2398       C  0.66732691  0.56006296  0.91941242    -0.15600
C2399       C  0.61526916  0.54443393  0.90570285    -0.01100
C2400       C  0.60759912  0.55194865  0.87989630    -0.08700
C2401       C  0.73860490  0.62276571  0.87163964     0.65600
H2402       H  0.75005087  0.59361483  0.91760645     0.11000
C2403       C  0.56556509  0.52159998  0.91758128     0.64000
H2404       H  0.56721161  0.54071858  0.86927114     0.08400
F2405       F  0.59438005  0.68984182  0.81644253    -0.19100
F2406       F  0.50025524  0.66868841  0.82665397    -0.15300
F2407       F  0.52702022  0.66914795  0.78606519    -0.18800
F2408       F  0.66003322  0.99575586  0.82853267    -0.22200
F2409       F  0.74644202  0.54063336  0.84481702    -0.23700
F2410       F  0.76062312  0.55405028  0.80471384    -0.17600
F2411       F  0.55244793  0.48988169  0.90252737    -0.20100
F2412       F  0.51227706  0.54258875  0.91927946    -0.21300
F2413       F  0.57240835  0.02122021  0.93830203    -0.18500
F2414       F  0.78971481  0.63124920  0.88720233    -0.18600
F2415       F  0.70142348  0.65405845  0.87067350    -0.22400
F2416       F  0.75952106  0.61404379  0.84779806    -0.24000
C2417       C  0.91724349  0.69061599  0.68264558    -0.10800
C2418       C  0.89877137  0.65748060  0.66940221     0.11800
C2419       C  0.89517781  0.62358078  0.68228728    -0.02600
C2420       C  0.92074051  0.62291498  0.70702530    -0.05300
C2421       C  0.94424492  0.65573977  0.71949312    -0.16100
C2422       C  0.93452766  0.69036427  0.70829335     0.02800
C2423       C  0.87842801  0.65937783  0.64262536     0.12700
C2424       C  0.86291916  0.58888466  0.67020310     0.63400
H2425       H  0.92382414  0.59679269  0.71659757     0.12800
C2426       C  0.93311258  0.72597983  0.72436110     0.55500
H2427       H  0.91511779  0.71681952  0.67310991     0.08600
C2428       C  0.81790489  0.67038688  0.63573918    -0.05200
C2429       C  0.79749289  0.66469533  0.61048566    -0.06000
C2430       C  0.83799717  0.65285927  0.59141072    -0.15600
C2431       C  0.90064846  0.64390183  0.59840022    -0.01100
C2432       C  0.91926625  0.64729773  0.62406255    -0.08700
C2433       C  0.77588641  0.68855292  0.65509467     0.65600
H2434       H  0.74932541  0.66987876  0.60548685     0.11000
C2435       C  0.94745553  0.62924489  0.57952490     0.64000
H2436       H  0.96586175  0.63999153  0.63007372     0.08400
F2437       F  0.88857316  0.72172463  0.74222732    -0.19100
F2438       F  0.91695341  0.75641346  0.71048027    -0.15300
F2439       F  0.99009320  0.73296072  0.73618642    -0.18800
F2440       F  0.89094832  0.57794805  0.64805561    -0.22200
F2441       F  0.80126526  0.59655926  0.66476094    -0.23700
F2442       F  0.86450267  0.55912305  0.68607356    -0.17600
F2443       F  0.00273428  0.61897227  0.59117401    -0.20100
F2444       F  0.96121930  0.65679854  0.56295718    -0.21300
F2445       F  0.92367605  0.59778665  0.56633798    -0.18500
F2446       F  0.71649308  0.69404879  0.64525396    -0.18600
F2447       F  0.80017120  0.72291979  0.66337538    -0.22400
F2448       F  0.77216491  0.66665443  0.67573279    -0.24000
C2449       C  0.93536932  0.65124173  0.90645640    -0.10800
C2450       C  0.90732874  0.67615232  0.88998903     0.11800
C2451       C  0.85744767  0.69841423  0.89843636    -0.02600
C2452       C  0.83967139  0.69624829  0.92359734    -0.05300
C2453       C  0.86525161  0.66963560  0.93959237    -0.16100
C2454       C  0.91405349  0.64629358  0.93082259     0.02800
C2455       C  0.92464343  0.67298870  0.86307233     0.12700
C2456       C  0.81908372  0.72126879  0.88039332     0.63400
H2457       H  0.80141986  0.71304261  0.93031620     0.12800
C2458       C  0.93931900  0.61351989  0.94548615     0.55500
H2459       H  0.97223291  0.63398763  0.89943989     0.08600
C2460       C  0.96130141  0.69997111  0.85113605    -0.05200
C2461       C  0.97769915  0.69260425  0.82616802    -0.06000
C2462       C  0.96165808  0.65895604  0.81307479    -0.15600
C2463       C  0.92498832  0.63193458  0.82466833    -0.01100
C2464       C  0.90706196  0.63956618  0.84958895    -0.08700
C2465       C  0.98685698  0.73611281  0.86354229     0.65600
H2466       H  0.00681440  0.71251173  0.81711484     0.11000
C2467       C  0.90615913  0.59500379  0.81113662     0.64000
H2468       H  0.88066852  0.61879439  0.85912600     0.08400
F2469       F  0.96335898  0.62560270  0.96887043    -0.19100
F2470       F  0.98662869  0.59517657  0.93303333    -0.15300
F2471       F  0.89200061  0.58774522  0.94858279    -0.18800
F2472       F  0.79588186  0.69863109  0.86050172    -0.22200
F2473       F  0.85554326  0.74860852  0.87091100    -0.23700
F2474       F  0.76948781  0.73836395  0.89204956    -0.17600
F2475       F  0.87455896  0.57177412  0.82673339    -0.20100
F2476       F  0.95801203  0.57611535  0.80293899    -0.21300
F2477       F  0.86770902  0.60174378  0.79054331    -0.18500
F2478       F  0.96634432  0.76585980  0.85006909    -0.18600
F2479       F  0.05098367  0.73636591  0.86340964    -0.22400
F2480       F  0.96912825  0.74147182  0.88799694    -0.24000
C2481       C  0.40461288  0.60089121  0.88370917    -0.10800
C2482       C  0.36677517  0.58541932  0.86392347     0.11800
C2483       C  0.31143758  0.56599101  0.86958606    -0.02600
C2484       C  0.29385508  0.56501821  0.89493422    -0.05300
C2485       C  0.33003761  0.58211020  0.91482433    -0.16100
C2486       C  0.38736175  0.60006887  0.90908446     0.02800
C2487       C  0.39037214  0.58760086  0.83796671     0.12700
C2488       C  0.25406663  0.06476186  0.83741032     0.63400
H2489       H  0.25017845  0.55152882  0.89913894     0.12800
C2490       C  0.42886909  0.62052653  0.92908598     0.55500
H2491       H  0.44777907  0.61438478  0.87889550     0.08600
C2492       C  0.38046026  0.61853246  0.82243515    -0.05200
C2493       C  0.40960351  0.61916384  0.79913790    -0.06000
C2494       C  0.44905762  0.59045457  0.79115189    -0.15600
C2495       C  0.45560117  0.55856664  0.80600877    -0.01100
C2496       C  0.42768138  0.55831676  0.82947454    -0.08700
C2497       C  0.34016148  0.65094179  0.83032697     0.65600
H2498       H  0.40384701  0.64295238  0.78732145     0.11000
C2499       C  0.49201581  0.52426240  0.79879185     0.64000
H2500       H  0.43589099  0.53506288  0.84158658     0.08400
F2501       F  0.47905430  0.63830680  0.91873638    -0.19100
F2502       F  0.45230429  0.59552335  0.94602241    -0.15300
F2503       F  0.39508911  0.64764529  0.94174874    -0.18800
F2504       F  0.23178111  0.02884817  0.84043103    -0.22200
F2505       F  0.28990977  0.54695336  0.82573016    -0.23700
F2506       F  0.20486760  0.08904181  0.83833094    -0.17600
F2507       F  0.53896610  0.52071931  0.81680016    -0.20100
F2508       F  0.49604554  0.03335097  0.76661464    -0.21300
F2509       F  0.40457033  0.05011797  0.74908440    -0.18500
F2510       F  0.36066379  0.66522988  0.85371549    -0.18600
F2511       F  0.27931189  0.63846944  0.83097561    -0.22400
F2512       F  0.34211752  0.67976401  0.81370850    -0.24000
C2513       C  0.42796207  0.63751041  0.65857700    -0.10800
C2514       C  0.38921542  0.60761787  0.64984250     0.11800
C2515       C  0.36934464  0.58147497  0.66728806    -0.02600
C2516       C  0.40071576  0.58070233  0.69095757    -0.05300
C2517       C  0.44481403  0.60854208  0.69872017    -0.16100
C2518       C  0.45251044  0.63975004  0.68336922     0.02800
C2519       C  0.37799463  0.60130344  0.62207290     0.12700
C2520       C  0.31389847  0.07750612  0.66304747     0.63400
H2521       H  0.38905216  0.08607312  0.70301432     0.12800
C2522       C  0.48361811  0.67639480  0.69221441     0.55500
H2523       H  0.44097349  0.65880784  0.64575051     0.08600
C2524       C  0.35015093  0.62804447  0.60648961    -0.05200
C2525       C  0.34726406  0.62041355  0.58021351    -0.06000
C2526       C  0.37040197  0.58696577  0.56918928    -0.15600
C2527       C  0.40119770  0.56143781  0.58454237    -0.01100
C2528       C  0.40272615  0.56862636  0.61075036    -0.08700
C2529       C  0.32191786  0.66400692  0.61708804     0.65600
H2530       H  0.32406259  0.63999008  0.56811327     0.11000
C2531       C  0.43515814  0.52739254  0.57429935     0.64000
H2532       H  0.42327917  0.54825102  0.62276459     0.08400
F2533       F  0.44405834  0.70563068  0.68710639    -0.19100
F2534       F  0.53743179  0.68134650  0.67918999    -0.15300
F2535       F  0.49723400  0.67826237  0.71782733    -0.18800
F2536       F  0.29212855  0.07060277  0.63866225    -0.22200
F2537       F  0.26096905  0.58264343  0.66056266    -0.23700
F2538       F  0.32573546  0.04360498  0.67362509    -0.17600
F2539       F  0.49771961  0.53108760  0.58079827    -0.20100
F2540       F  0.42970176  0.52253087  0.54836010    -0.21300
F2541       F  0.39346077  0.00030963  0.58870259    -0.18500
F2542       F  0.27364663  0.67553471  0.60158844    -0.18600
F2543       F  0.36674401  0.69210167  0.61877101    -0.22400
F2544       F  0.29811501  0.65921365  0.64067132    -0.24000
C2545       C  0.14383025  0.68561165  0.84568152    -0.10800
C2546       C  0.12478140  0.66115972  0.86400428     0.11800
C2547       C  0.09537243  0.62658018  0.85582936    -0.02600
C2548       C  0.08121971  0.62006367  0.82989469    -0.05300
C2549       C  0.09540621  0.64642949  0.81193478    -0.16100
C2550       C  0.13306769  0.67775650  0.81977758     0.02800
C2551       C  0.13594216  0.67333601  0.89115122     0.12700
C2552       C  0.07583022  0.59600835  0.87316164     0.63400
H2553       H  0.05546665  0.59499328  0.82378936     0.12800
C2554       C  0.16288185  0.70250229  0.80103127     0.55500
H2555       H  0.16573629  0.71187550  0.85179655     0.08600
C2556       C  0.19636579  0.67466970  0.90274189    -0.05200
C2557       C  0.20247530  0.68083911  0.92889881    -0.06000
C2558       C  0.15072055  0.68804130  0.94344026    -0.15600
C2559       C  0.09272236  0.69400390  0.93163224    -0.01100
C2560       C  0.08539943  0.68531941  0.90555669    -0.08700
C2561       C  0.25390162  0.66816242  0.88791111     0.65600
H2562       H  0.24709458  0.67721164  0.93849885     0.11000
C2563       C  0.04095399  0.71059662  0.94703675     0.64000
H2564       H  0.04045965  0.68716130  0.89639231     0.08400
F2565       F  0.20333914  0.68128439  0.78681090    -0.19100
F2566       F  0.19711473  0.73163436  0.81280200    -0.15300
F2567       F  0.11795036  0.71753415  0.78552035    -0.18800
F2568       F  0.01232024  0.59009120  0.87052259    -0.22200
F2569       F  0.09104250  0.60423111  0.89825255    -0.23700
F2570       F  0.10410909  0.56275873  0.86625450    -0.17600
F2571       F  0.98879008  0.71718831  0.93234672    -0.20100
F2572       F  0.06107869  0.74437261  0.95831067    -0.21300
F2573       F  0.02475810  0.68689948  0.96565445    -0.18500
F2574       F  0.30727891  0.66801790  0.90310760    -0.18600
F2575       F  0.26094852  0.69626380  0.87114454    -0.22400
F2576       F  0.24775545  0.63402335  0.87520294    -0.24000
C2577       C  0.11980209  0.67233239  0.67973913    -0.10800
C2578       C  0.09520324  0.64266989  0.66418395     0.11800
C2579       C  0.06716322  0.61139403  0.67564026    -0.02600
C2580       C  0.06141755  0.61277530  0.70184030    -0.05300
C2581       C  0.07826270  0.64460853  0.71673318    -0.16100
C2582       C  0.11254667  0.67373480  0.70599141     0.02800
C2583       C  0.11043706  0.64229607  0.63697862     0.12700
C2584       C  0.04426504  0.57555634  0.66150715     0.63400
H2585       H  0.03966479  0.58954078  0.71086002     0.12800
C2586       C  0.14581937  0.70431190  0.72202917     0.55500
H2587       H  0.14618310  0.69408606  0.67108533     0.08600
C2588       C  0.09941844  0.67228842  0.62057814    -0.05200
C2589       C  0.12456274  0.67013985  0.59631974    -0.06000
C2590       C  0.15317553  0.63742066  0.58696342    -0.15600
C2591       C  0.15847086  0.60617424  0.60293818    -0.01100
C2592       C  0.14330166  0.61140399  0.62810030    -0.08700
C2593       C  0.06172175  0.70677767  0.62730960     0.65600
H2594       H  0.11922461  0.69363694  0.58418680     0.11000
C2595       C  0.17853174  0.56679424  0.59444591     0.64000
H2596       H  0.15613981  0.59049887  0.64123912     0.08400
F2597       F  0.17643632  0.72960366  0.70752065    -0.19100
F2598       F  0.18968858  0.68817794  0.73751633    -0.15300
F2599       F  0.10452913  0.72402815  0.73657452    -0.18800
F2600       F  0.09091262  0.54921617  0.66160524    -0.22200
F2601       F  0.02547389  0.58175411  0.63695769    -0.23700
F2602       F  0.99411053  0.56024629  0.67328105    -0.17600
F2603       F  0.17542844  0.54175934  0.61360066    -0.20100
F2604       F  0.23921206  0.56732919  0.58674722    -0.21300
F2605       F  0.13919798  0.55284240  0.57506858    -0.18500
F2606       F  0.01980143  0.71349001  0.60774585    -0.18600
F2607       F  0.10128553  0.73745135  0.63083804    -0.22400
F2608       F  0.02800800  0.70293507  0.64876072    -0.24000
loop_ 
_geom_bond_atom_site_label_1 
_geom_bond_atom_site_label_2 
_geom_bond_distance 
_geom_bond_site_symmetry_2 
_ccdc_geom_bond_type 
C1            C6   1.433       .  A
C1          C654   1.436       .  A
C1           C80   1.519       .  S
C2            C3   1.432       .  A
C2          C653   1.442       .  A
C2           C59   1.543       .  S
C3            C4   1.439       .  A
C3            H8   1.084       .  S
C4          C657   1.436       .  A
C4           C34   1.526       .  S
C5            C6   1.432       .  A
C5          C656   1.443       .  A
C5          C105   1.539       .  S
C6            H7   1.085       .  S
C9           C14   1.445       .  A
C9         C1314   1.457   1_545  A
C9           C61   1.547       .  S
C10          C11   1.448       .  A
C10        C1313   1.459       .  A
C10         C735   1.567       .  S
C11          C12   1.443   1_655  A
C11          H16   1.081       .  S
C12        C1317   1.430       .  A
C12         C759   1.554       .  S
C13          C14   1.435   1_455  A
C13        C1316   1.433   1_545  A
C13          C37   1.534       .  S
C14          H15   1.084       .  S
Zn17         O21   2.021   1_554  S
Zn17         O22   2.146       .  S
Zn17         O26   2.065       .  S
Zn17        O685   2.007   1_554  S
Zn18         O21   1.909       .  S
Zn18         O23   1.996   1_556  S
Zn18         O25   2.056       .  S
Zn18        O681   2.013       .  S
Zn19         O21   1.930   1_554  S
Zn19         O24   1.915       .  S
Zn19         O27   1.993       .  S
Zn19         O30   2.096       .  S
Zn20        O673   1.955       .  S
Zn20         O28   2.134       .  S
Zn20         O31   2.101       .  S
Zn20         O32   1.983       .  S
O21        Zn672   1.932       .  S
O22          C34   1.283   1_554  A
O23          C35   1.271       .  A
O24          C36   1.259       .  A
O25          C34   1.274       .  A
O26          C36   1.282       .  A
O27          C35   1.275       .  A
O28         C689   1.283       .  A
O29        Zn670   2.055       .  S
O29          C38   1.284       .  A
O30          C37   1.277   1_554  A
O31          C38   1.290       .  A
O32          C39   1.266       .  A
O33        Zn669   2.035       .  S
O33          C39   1.277       .  A
C35         C570   1.473       .  S
C36         C634   1.476       .  S
C37         O680   1.284       .  A
C38         C529   1.515       .  S
C39         C602   1.455       .  S
Zn40         O44   1.967   1_554  S
Zn40         O45   1.958       .  S
Zn40         O49   2.151       .  S
Zn40         O56   2.060       .  S
Zn41         O44   2.057       .  S
Zn41         O48   2.061   1_556  S
Zn41         O52   2.123       .  S
Zn41        O698   2.067       .  S
Zn42        O696   1.967       .  S
Zn42         O47   2.134       .  S
Zn42         O50   1.963       .  S
Zn42         O53   1.974       .  S
Zn43         O44   1.949   1_554  S
Zn43         O54   2.111   1_554  S
Zn43         O55   2.036       .  S
Zn43        O703   2.034   1_554  S
O44        Zn694   1.955       .  S
O45          C57   1.264       .  A
O46        Zn693   2.106       .  S
O46          C58   1.286       .  A
O47         C711   1.279       .  A
O48          C57   1.273       .  A
O49          C59   1.284   1_554  A
O50          C58   1.270       .  A
O51        Zn695   2.006       .  S
O51          C60   1.278       .  A
O52          C61   1.276       .  A
O53          C60   1.275       .  A
O54          C61   1.282       .  A
O55          C62   1.279       .  A
O56          C62   1.285       .  A
C57         C410   1.491       .  S
C58         C442   1.481       .  S
C59         O699   1.281       .  A
C60         C497   1.467       .  S
C62         C474   1.507       .  S
Zn63         O67   1.967       .  S
Zn63         O68   2.088       .  S
Zn63         O72   1.969       .  S
Zn63         O79   1.945       .  S
Zn64        O719   1.965   1_554  S
Zn64         O69   1.958       .  S
Zn64         O71   2.117       .  S
Zn64         O75   1.996       .  S
Zn65         O67   1.978       .  S
Zn65         O70   2.066       .  S
Zn65         O76   2.087       .  S
Zn65        O725   2.060       .  S
Zn66         O67   2.023       .  S
Zn66         O74   2.185       .  S
Zn66         O78   2.130       .  S
Zn66        O729   2.119       .  S
O67        Zn716   1.951       .  S
O68          C80   1.273       .  A
O69          C81   1.266       .  A
O70          C82   1.279       .  A
O71         C732   1.279   1_554  A
O72          C82   1.269       .  A
O73        Zn717   2.054   1_554  S
O73          C81   1.283       .  A
O74          C83   1.286       .  A
O75          C84   1.273       .  A
O76          C83   1.282       .  A
O77        Zn718   2.126   1_554  S
O77          C84   1.289       .  A
O78          C85   1.293       .  A
O79          C85   1.267       .  A
C80         O723   1.277       .  A
C81         C369   1.485       .  S
C82         C346   1.493       .  S
C83         C662   1.561       .  S
C84         C314   1.494       .  S
C85         C273   1.484       .  S
Zn86        O742   1.961   1_554  S
Zn86         O91   1.957       .  S
Zn86         O95   2.105       .  S
Zn86        O102   2.022       .  S
Zn87         O90   2.045       .  S
Zn87         O92   2.144       .  S
Zn87         O98   2.190       .  S
Zn87        O746   2.131       .  S
Zn88         O90   1.946       .  S
Zn88         O93   2.163       .  S
Zn88         O96   1.984       .  S
Zn88         O99   1.977       .  S
Zn89         O90   1.953       .  S
Zn89         O97   2.044       .  S
Zn89        O100   2.071       .  S
Zn89        O753   2.066       .  S
O90        Zn738   1.956       .  S
O91         C103   1.262       .  A
O92         C104   1.292       .  A
O93         C105   1.285       .  A
O94        Zn739   2.134   1_554  S
O94         C103   1.286       .  A
O95         C757   1.278   1_554  A
O96         C104   1.275       .  A
O97         C106   1.283       .  A
O98         C107   1.288       .  A
O99         C106   1.276       .  A
O100        C107   1.275       .  A
O101       Zn741   2.046       .  S
O101        C108   1.283       .  A
O102        C108   1.278       .  A
C103        C154   1.512       .  S
C104        C186   1.501       .  S
C105        O747   1.278       .  A
C106        C250   1.489       .  S
C107        C664   1.554       .  S
C108        C218   1.484       .  S
C109        C110   1.427   1_455  A
C109        C114   1.414       .  A
C109        C209   1.493       .  S
C110        C111   1.410       .  A
C110        C378   1.509       .  S
C111        C112   1.407       .  A
C111        H116   1.080       .  S
C112        C113   1.418   1_655  A
C112        C337   1.495       .  S
C113        C114   1.404       .  A
C113        C241   1.500       .  S
C114        H115   1.083       .  S
C117        C118   1.422   1_655  A
C117        C122   1.391       .  A
C117        C465   1.495       .  S
C118        C119   1.405       .  A
C118        C625   1.473       .  S
C119        C120   1.401       .  A
C119        H124   1.081       .  S
C120        C121   1.419       .  A
C120        C593   1.500       .  S
C121        C122   1.397   1_455  A
C121        C506   1.466   1_455  S
C122        H123   1.084       .  S
C125        C126   1.422       .  A
C125        C130   1.402       .  A
C125        C561   1.500       .  S
C126        C127   1.411       .  A
C126        C401   1.486       .  S
C127        C128   1.404       .  A
C127        H132   1.084       .  S
C128        C129   1.419       .  A
C128        C433   1.504       .  S
C129        C130   1.405       .  A
C129        C538   1.479       .  S
C130        H131   1.084       .  S
C133        C134   1.430       .  A
C133        C138   1.411       .  A
C133        C145   1.504       .  S
C134        C135   1.415       .  A
C134        C305   1.506       .  S
C135        C136   1.411       .  A
C135        H140   1.083       .  S
C136        C137   1.417       .  A
C136        C282   1.506       .  S
C137        C138   1.408       .  A
C137        C177   1.494       .  S
C138        H139   1.083       .  S
C141        C142   1.410       .  A
C141        C146   1.421       .  A
C141        H151   1.082       .  S
C142        C143   1.422       .  A
C142        C147   1.517       .  S
C143        C144   1.410       .  A
C143       C1452   1.510       .  S
C144        C145   1.399       .  A
C144       H1453   1.083       .  S
C145        C146   1.423       .  A
C146        C150   1.520       .  S
C147        C152   1.420       .  A
C147        C156   1.409       .  A
C148       C1447   1.507       .  S
C148        F164   1.376       .  S
C148        F165   1.379       .  S
C148        F166   1.383       .  S
H149       C1448   1.083       .  S
C150        F161   1.384       .  S
C150        F162   1.382       .  S
C150        F163   1.379       .  S
C152        C153   1.413       .  A
C152        C157   1.520       .  S
C153        C154   1.413       .  A
C153        H158   1.082       .  S
C154        C155   1.419       .  A
C155        C156   1.420       .  A
C155        C159   1.514       .  S
C156        H160   1.079       .  S
C157        F170   1.385       .  S
C157        F171   1.382       .  S
C157        F172   1.379       .  S
C159        F167   1.380       .  S
C159        F168   1.380       .  S
C159        F169   1.381       .  S
C173        C174   1.409       .  A
C173        C178   1.409       .  A
C173        H183   1.083       .  S
C174        C175   1.414       .  A
C174        C179   1.502       .  S
C175        C176   1.413       .  A
C175        C180   1.511       .  S
C176        C177   1.404       .  A
C176        H181   1.082       .  S
C177        C178   1.415       .  A
C178        C182   1.519       .  S
C179        C184   1.410       .  A
C179        C188   1.416       .  A
C180        F197   1.383       .  S
C180       F1500   1.377       .  S
C180       F1502   1.384       .  S
C182        F193   1.383       .  S
C182        F194   1.382       .  S
C182        F195   1.383       .  S
C184        C185   1.405       .  A
C184        C189   1.517       .  S
C185        C186   1.409       .  A
C185        H190   1.085       .  S
C186        C187   1.414       .  A
C187        C188   1.424       .  A
C187        C191   1.512       .  S
C188        H192   1.083       .  S
C189        F202   1.372       .  S
C189        F203   1.381       .  S
C189        F204   1.380       .  S
C191        F199   1.380       .  S
C191        F200   1.383       .  S
C191       F1505   1.383       .  S
F196       C1484   1.381       .  S
F198       C1484   1.384       .  S
F201       C1495   1.380       .  S
C205        C206   1.408       .  A
C205        C210   1.404       .  A
C205        H215   1.073       .  S
C206        C207   1.423       .  A
C206        C211   1.511       .  S
C207        C208   1.408       .  A
C207        C212   1.515       .  S
C208        C209   1.404       .  A
C208        H213   1.084       .  S
C209        C210   1.416       .  A
C210        C214   1.520   1_455  S
C211        C216   1.426       .  A
C211        C220   1.415       .  A
C212        F228   1.381       .  S
C212        F229   1.382       .  S
C212        F230   1.383       .  S
C214        F225   1.382       .  S
C214        F226   1.381       .  S
C214        F227   1.384       .  S
C216        C217   1.409       .  A
C216        C221   1.522       .  S
C217        C218   1.404       .  A
C217        H222   1.084       .  S
C218        C219   1.410       .  A
C219        C220   1.409       .  A
C219        C223   1.517       .  S
C220        H224   1.079       .  S
C221        F234   1.382       .  S
C221        F235   1.384       .  S
C221        F236   1.382       .  S
C223        F231   1.384       .  S
C223        F232   1.382       .  S
C223        F233   1.383       .  S
C237        C238   1.406       .  A
C237        C242   1.395       .  A
C237        H247   1.081       .  S
C238        C239   1.437       .  A
C238        C243   1.524       .  S
C239        C240   1.424       .  A
C239        C244   1.516       .  S
C240        C241   1.406       .  A
C240        H245   1.084       .  S
C241        C242   1.406       .  A
C242        C246   1.507       .  S
C243        C248   1.431       .  A
C243        C252   1.413       .  A
C244        F260   1.384       .  S
C244        F261   1.379       .  S
C244        F262   1.383       .  S
C246        F257   1.373       .  S
C246        F258   1.380       .  S
C246        F259   1.379       .  S
C248        C249   1.415       .  A
C248        C253   1.514       .  S
C249        C250   1.408       .  A
C249        H254   1.084       .  S
C250        C251   1.409       .  A
C251        C252   1.398       .  A
C251        C255   1.510       .  S
C252        H256   1.082       .  S
C253        F266   1.383       .  S
C253        F267   1.381   1_455  S
C253        F268   1.370   1_455  S
C255        F263   1.378       .  S
C255        F264   1.382       .  S
C255        F265   1.379       .  S
C269        C270   1.408       .  A
C269        C274   1.415       .  A
C269        H279   1.082       .  S
C270        C271   1.427       .  A
C270        C275   1.513       .  S
C271        C272   1.411       .  A
C271        C276   1.517       .  S
C272        C273   1.399       .  A
C272        H277   1.083       .  S
C273        C274   1.420       .  A
C274        C278   1.519       .  S
C275        C280   1.432       .  A
C275        C284   1.409       .  A
C276        F292   1.375       .  S
C276        F293   1.379       .  S
C276        F294   1.384       .  S
C278        F289   1.382       .  S
C278        F290   1.382       .  S
C278        F291   1.383       .  S
C280        C281   1.418       .  A
C280        C285   1.528       .  S
C281        C282   1.404       .  A
C281        H286   1.081       .  S
C282        C283   1.410       .  A
C283        C284   1.412       .  A
C283       C1591   1.515       .  S
C284        H288   1.079       .  S
C285        F298   1.380       .  S
C285        F299   1.381       .  S
C285        F300   1.384       .  S
C287       C1587   1.519       .  S
C287        F295   1.383       .  S
C287        F296   1.376       .  S
C287        F297   1.383       .  S
C301        C302   1.408       .  A
C301        C306   1.410       .  A
C301        H311   1.085       .  S
C302        C303   1.428       .  A
C302        C307   1.509       .  S
C303        C304   1.414       .  A
C303       C1612   1.519       .  S
C304        C305   1.407       .  A
C304       H1613   1.083       .  S
C305        C306   1.416       .  A
C306        C310   1.514       .  S
C307        C312   1.426       .  A
C307        C316   1.411       .  A
C308       C1607   1.515       .  S
C308        F324   1.377       .  S
C308        F326   1.382       .  S
C308       F1629   1.382       .  S
H309       C1608   1.085       .  S
C310        F321   1.384       .  S
C310        F322   1.381       .  S
C310        F323   1.382       .  S
C312        C313   1.417       .  A
C312        C317   1.519       .  S
C313        C314   1.407       .  A
C313        H318   1.084       .  S
C314        C315   1.407       .  A
C315        C316   1.413       .  A
C315        C319   1.511       .  S
C316        H320   1.082       .  S
C317        F330   1.382       .  S
C317        F331   1.381       .  S
C317        F332   1.378       .  S
C319        F327   1.381       .  S
C319        F328   1.381       .  S
C319        F329   1.384       .  S
F325       C1612   1.383       .  S
C333        C334   1.403       .  A
C333        C338   1.408       .  A
C333        H343   1.082       .  S
C334        C335   1.421       .  A
C334        C339   1.488       .  S
C335        C336   1.401       .  A
C335        C340   1.515       .  S
C336        C337   1.402       .  A
C336        H341   1.085       .  S
C337        C338   1.417       .  A
C338        C342   1.514       .  S
C339        C344   1.412       .  A
C339        C348   1.413       .  A
C340        F356   1.381       .  S
C340        F357   1.381       .  S
C340        F358   1.383       .  S
C342        F353   1.382       .  S
C342        F354   1.385       .  S
C342        F355   1.376       .  S
C344        C345   1.401       .  A
C344        C349   1.514       .  S
C345        C346   1.408       .  A
C345        H350   1.084       .  S
C346        C347   1.414       .  A
C347        C348   1.420       .  A
C347        C351   1.518       .  S
C348        H352   1.082       .  S
C349        F362   1.371       .  S
C349        F363   1.384       .  S
C349        F364   1.380       .  S
C351        F359   1.382       .  S
C351        F360   1.384       .  S
C351        F361   1.381       .  S
C365        C366   1.400       .  A
C365        C370   1.410       .  A
C365        H375   1.077       .  S
C366        C367   1.419       .  A
C366        C371   1.499       .  S
C367        C368   1.403       .  A
C367        C372   1.511       .  S
C368        C369   1.401       .  A
C368        H373   1.083       .  S
C369        C370   1.427       .  A
C370        C374   1.523       .  S
C371        C376   1.421       .  A
C371        C380   1.399       .  A
C372        F388   1.378   1_655  S
C372        F389   1.378       .  S
C372        F390   1.384       .  S
C374        F385   1.381       .  S
C374        F386   1.377       .  S
C374        F387   1.383       .  S
C376        C377   1.414       .  A
C376        C381   1.524       .  S
C377        C378   1.410       .  A
C377        H382   1.083       .  S
C378        C379   1.428       .  A
C379        C380   1.408       .  A
C379        C383   1.517   1_655  S
C380        H384   1.084   1_655  S
C381        F394   1.380       .  S
C381        F395   1.381       .  S
C381        F396   1.382       .  S
C383        F391   1.379       .  S
C383        F392   1.383       .  S
C383        F393   1.378       .  S
C397        C398   1.403       .  A
C397        C402   1.413       .  A
C397        H407   1.076       .  S
C398        C399   1.416       .  A
C398        C403   1.488       .  S
C399        C400   1.399       .  A
C399       C1708   1.510       .  S
C400        C401   1.397       .  A
C400       H1709   1.084       .  S
C401        C402   1.419       .  A
C402        C406   1.520       .  S
C403        C408   1.409       .  A
C403        C412   1.404       .  A
C404       C1703   1.513       .  S
C404        F420   1.377       .  S
C404        F422   1.377       .  S
C404       F1725   1.364       .  S
H405       C1704   1.084       .  S
C406        F417   1.381       .  S
C406        F418   1.382       .  S
C406        F419   1.379       .  S
C408        C409   1.393       .  A
C408        C413   1.511       .  S
C409        C410   1.405       .  A
C409        H414   1.082       .  S
C410        C411   1.427       .  A
C411        C412   1.417       .  A
C411        C415   1.518       .  S
C412        H416   1.083       .  S
C413        F426   1.385       .  S
C413        F427   1.380       .  S
C413        F428   1.368       .  S
C415        F423   1.384       .  S
C415        F424   1.383       .  S
C415        F425   1.374   1_545  S
F421       C1708   1.370       .  S
C429        C430   1.403       .  A
C429        C434   1.408       .  A
C429        H439   1.084       .  S
C430        C431   1.419       .  A
C430        C435   1.494       .  S
C431        C432   1.415       .  A
C431        C436   1.523       .  S
C432        C433   1.411       .  A
C432        H437   1.084       .  S
C433        C434   1.422       .  A
C434        C438   1.520       .  S
C435        C440   1.412       .  A
C435        C444   1.409       .  A
C436        F453   1.379       .  S
C436        F454   1.383       .  S
C436       F1756   1.370   1_545  S
C438        F449   1.383       .  S
C438        F450   1.382       .  S
C438        F451   1.382       .  S
C440        C441   1.407       .  A
C440        C445   1.514       .  S
C441        C442   1.402       .  A
C441        H446   1.084       .  S
C442        C443   1.411       .  A
C443        C444   1.418       .  A
C443        C447   1.510       .  S
C444        H448   1.083       .  S
C445        F458   1.376       .  S
C445        F459   1.381       .  S
C445        F460   1.380       .  S
C447        F455   1.384       .  S
C447        F456   1.380       .  S
C447       F1761   1.380       .  S
F452       C1740   1.378       .  S
F457       C1751   1.380       .  S
C461        C462   1.402       .  A
C461        C466   1.406       .  A
C461        H471   1.082       .  S
C462        C463   1.419       .  A
C462        C467   1.491       .  S
C463        C464   1.411       .  A
C463        C468   1.520       .  S
C464        C465   1.403       .  A
C464        H469   1.083       .  S
C465        C466   1.411       .  A
C466        C470   1.510       .  S
C467        C472   1.409       .  A
C467        C476   1.398       .  A
C468        F484   1.381       .  S
C468        F485   1.383       .  S
C468        F486   1.385       .  S
C470        F481   1.381       .  S
C470        F482   1.381       .  S
C470        F483   1.376       .  S
C472        C473   1.408       .  A
C472        C477   1.516       .  S
C473        C474   1.409       .  A
C473        H478   1.082       .  S
C474        C475   1.433       .  A
C475        C476   1.412       .  A
C475        C479   1.522       .  S
C476        H480   1.082       .  S
C477        F490   1.382       .  S
C477        F491   1.379       .  S
C477        F492   1.378       .  S
C479        F487   1.384   1_655  S
C479        F488   1.383       .  S
C479        F489   1.383       .  S
C493        C494   1.396       .  A
C493        C498   1.395       .  A
C493        H503   1.076       .  S
C494        C495   1.413       .  A
C494        C499   1.473       .  S
C495        C496   1.401       .  A
C495        C500   1.512       .  S
C496        C497   1.405       .  A
C496        H501   1.085       .  S
C497        C498   1.423       .  A
C498        C502   1.526       .  S
C499        C504   1.417       .  A
C499        C508   1.407       .  A
C500        F516   1.381       .  S
C500        F517   1.369       .  S
C500        F518   1.384       .  S
C502        F513   1.380       .  S
C502        F514   1.386       .  S
C502        F515   1.384       .  S
C504        C505   1.395       .  A
C504        C509   1.520       .  S
C505        C506   1.397       .  A
C505        H510   1.078   1_655  S
C506        C507   1.408       .  A
C507        C508   1.396       .  A
C507        C511   1.522       .  S
C508        H512   1.077       .  S
C509        F522   1.379   1_655  S
C509        F523   1.375       .  S
C509        F524   1.372       .  S
C511        F519   1.385       .  S
C511        F520   1.382       .  S
C511        F521   1.381       .  S
C525        C526   1.401       .  A
C525        C530   1.413       .  A
C525        H535   1.083       .  S
C526        C527   1.423       .  A
C526        C531   1.506       .  S
C527        C528   1.422       .  A
C527       C1836   1.524       .  S
C528        C529   1.412       .  A
C528        H533   1.082       .  S
C529        C530   1.431       .  A
C530        C534   1.524       .  S
C531        C536   1.431       .  A
C531        C540   1.405       .  A
C532       C1831   1.520       .  S
C532        F548   1.384       .  S
C532        F550   1.381       .  S
C532       F1853   1.376       .  S
C534        F545   1.385       .  S
C534        F546   1.377       .  S
C534        F547   1.382       .  S
C536        C537   1.409       .  A
C536        C541   1.513       .  S
C537        C538   1.393       .  A
C537        H542   1.083       .  S
C538        C539   1.405       .  A
C539        C540   1.405       .  A
C539        C543   1.514       .  S
C540        H544   1.079       .  S
C541        F554   1.386       .  S
C541        F555   1.379       .  S
C541        F556   1.378       .  S
C543        F551   1.378   1_545  S
C543       F1856   1.380       .  S
C543       F1857   1.383       .  S
F549       C1836   1.382       .  S
F552       C1847   1.379       .  S
F553       C1847   1.373       .  S
C557        C558   1.403       .  A
C557        C562   1.409       .  A
C557        H567   1.082       .  S
C558        C559   1.416       .  A
C558        C563   1.502       .  S
C559        C560   1.411       .  A
C559       C1868   1.513       .  S
C560        C561   1.405       .  A
C560       H1869   1.084       .  S
C561        C562   1.421       .  A
C562        C566   1.514       .  S
C563        C568   1.415       .  A
C563        C572   1.409       .  A
C564       C1863   1.516       .  S
C564        F580   1.380       .  S
C564        F582   1.384       .  S
C564       F1885   1.379       .  S
H565       C1864   1.083       .  S
C566        F577   1.384       .  S
C566        F578   1.381       .  S
C566        F579   1.381       .  S
C568        C569   1.412       .  A
C568        C573   1.520       .  S
C569        C570   1.410       .  A
C569        H574   1.079       .  S
C570        C571   1.397       .  A
C571        C572   1.406       .  A
C571        C575   1.515       .  S
C572        H576   1.052       .  S
C573        F586   1.383       .  S
C573        F587   1.381       .  S
C573        F588   1.382       .  S
C575        F583   1.383       .  S
C575        F584   1.382       .  S
C575       F1889   1.381       .  S
F581       C1868   1.377       .  S
F585       C1879   1.378       .  S
C589        C590   1.399       .  A
C589        C594   1.402       .  A
C589        H599   1.079       .  S
C590        C591   1.416       .  A
C590        C595   1.491       .  S
C591        C592   1.410       .  A
C591        C596   1.517       .  S
C592        C593   1.407       .  A
C592        H597   1.080       .  S
C593        C594   1.415       .  A
C594        C598   1.510       .  S
C595        C600   1.416       .  A
C595        C604   1.407       .  A
C596        F612   1.374       .  S
C596        F613   1.379       .  S
C596        F614   1.385       .  S
C598        F609   1.380       .  S
C598        F610   1.384       .  S
C598        F611   1.379       .  S
C600        C601   1.397       .  A
C600        C605   1.503       .  S
C601        C602   1.395       .  A
C601        H606   1.084       .  S
C602        C603   1.405       .  A
C603        C604   1.408       .  A
C603        C607   1.512       .  S
C604        H608   1.079       .  S
C605        F618   1.373       .  S
C605        F619   1.379       .  S
C605        F620   1.380       .  S
C607        F615   1.377   1_455  S
C607        F616   1.383       .  S
C607        F617   1.380       .  S
C621        C622   1.401       .  A
C621        C626   1.401       .  A
C621        H631   1.083       .  S
C622        C623   1.428       .  A
C622        C627   1.475       .  S
C623        C624   1.394       .  A
C623        C628   1.525       .  S
C624        C625   1.393       .  A
C624        H629   1.084       .  S
C625        C626   1.415       .  A
C626        C630   1.514       .  S
C627        C632   1.422       .  A
C627        C636   1.384       .  A
C628        F644   1.382       .  S
C628        F645   1.382       .  S
C628        F646   1.382       .  S
C630        F641   1.385       .  S
C630        F642   1.379       .  S
C630        F643   1.375       .  S
C632        C633   1.408       .  A
C632        C637   1.516       .  S
C633        C634   1.404       .  A
C633        H638   1.084       .  S
C634        C635   1.428       .  A
C635        C636   1.385       .  A
C635        C639   1.525       .  S
C636        H640   1.077       .  S
C637        F650   1.384       .  S
C637        F651   1.382       .  S
C637        F652   1.379       .  S
C639        F647   1.381       .  S
C639        F648   1.377       .  S
C639        F649   1.384       .  S
C653        C658   1.434       .  A
C653        C732   1.523       .  S
C654        C655   1.432       .  A
C654        C711   1.546       .  S
C655        C656   1.445       .  A
C655        H660   1.084       .  S
C656        C686   1.536       .  S
C657        C658   1.430       .  A
C657        C757   1.534       .  S
C658        H659   1.085       .  S
C661       C1966   1.460   1_545  A
C661        C666   1.452       .  A
C661        C713   1.555       .  S
C662       C1965   1.460       .  A
C662        C663   1.450       .  A
C663        C664   1.439   1_655  A
C663        H668   1.081       .  S
C664       C1969   1.428       .  A
C665       C1968   1.429   1_545  A
C665        C666   1.437   1_455  A
C665        C689   1.540       .  S
C666        H667   1.083       .  S
Zn669       O673   2.031       .  S
Zn669       O674   2.165       .  S
Zn669       O678   2.098       .  S
Zn670       O673   1.938       .  S
Zn670       O675   2.037       .  S
Zn670       O677   2.062       .  S
Zn671       O673   1.955       .  S
Zn671       O676   1.928       .  S
Zn671       O679   2.018       .  S
Zn671       O682   2.126       .  S
Zn672       O680   2.132       .  S
Zn672       O683   2.107       .  S
Zn672       O684   1.988       .  S
O674        C686   1.284       .  A
O675        C687   1.276       .  A
O676        C688   1.260       .  A
O677        C686   1.276       .  A
O678        C688   1.286       .  A
O679        C687   1.277       .  A
O681        C690   1.279       .  A
O682        C689   1.281       .  A
O683        C690   1.291       .  A
O684        C691   1.266       .  A
O685        C691   1.273       .  A
C687       C1222   1.489       .  S
C688       C1286   1.491       .  S
C690       C1181   1.506       .  S
C691       C1254   1.446       .  S
Zn692       O696   1.953       .  S
Zn692       O697   1.906       .  S
Zn692       O701   2.155       .  S
Zn692       O708   2.008       .  S
Zn693       O696   2.034       .  S
Zn693       O700   2.075       .  S
Zn693       O704   2.165       .  S
Zn694       O699   2.134       .  S
Zn694       O702   1.982       .  S
Zn694       O705   1.971       .  S
Zn695       O696   1.972       .  S
Zn695       O706   2.094       .  S
Zn695       O707   2.039       .  S
O697        C709   1.267       .  A
O698        C710   1.283       .  A
O700        C709   1.284       .  A
O701        C711   1.283       .  A
O702        C710   1.274       .  A
O703        C712   1.280       .  A
O704        C713   1.281       .  A
O705        C712   1.274       .  A
O706        C713   1.280       .  A
O707        C714   1.274       .  A
O708        C714   1.277       .  A
C709       C1062   1.466       .  S
C710       C1094   1.474       .  S
C712       C1149   1.477       .  S
C714       C1126   1.508       .  S
Zn715       O719   1.977       .  S
Zn715       O720   2.106       .  S
Zn715       O724   1.985       .  S
Zn715       O731   1.953       .  S
Zn716       O721   1.943       .  S
Zn716       O723   2.109       .  S
Zn716       O727   1.968       .  S
Zn717       O719   1.978       .  S
Zn717       O722   2.049       .  S
Zn717       O728   2.102       .  S
Zn718       O719   2.023       .  S
Zn718       O726   2.186       .  S
Zn718       O730   2.127       .  S
O720        C732   1.276       .  A
O721        C733   1.265       .  A
O722        C734   1.277       .  A
O724        C734   1.272       .  A
O725        C733   1.283       .  A
O726        C735   1.286       .  A
O727        C736   1.269       .  A
O728        C735   1.283       .  A
O729        C736   1.287       .  A
O730        C737   1.292       .  A
O731        C737   1.268       .  A
C733       C1021   1.483       .  S
C734        C998   1.494       .  S
C736        C966   1.486       .  S
C737        C925   1.487       .  S
Zn738       O743   1.952       .  S
Zn738       O747   2.107       .  S
Zn738       O754   2.013       .  S
Zn739       O742   2.033       .  S
Zn739       O744   2.144       .  S
Zn739       O750   2.208       .  S
Zn740       O742   1.948       .  S
Zn740       O745   2.149       .  S
Zn740       O748   1.981       .  S
Zn740       O751   1.987       .  S
Zn741       O742   1.962   1_554  S
Zn741       O749   2.028   1_554  S
Zn741       O752   2.044       .  S
O743        C755   1.261       .  A
O744        C756   1.293       .  A
O745        C757   1.284       .  A
O746        C755   1.283       .  A
O748        C756   1.274       .  A
O749        C758   1.278       .  A
O750        C759   1.290       .  A
O751        C758   1.274       .  A
O752        C759   1.272   1_554  A
O753        C760   1.286       .  A
O754        C760   1.278       .  A
C755        C806   1.512       .  S
C756        C838   1.502       .  S
C758        C902   1.503       .  S
C760        C870   1.485       .  S
C761        C762   1.429   1_455  A
C761        C766   1.414       .  A
C761        C861   1.491       .  S
C762        C763   1.408       .  A
C762       C1030   1.511       .  S
C763        C764   1.402       .  A
C763        H768   1.080       .  S
C764        C765   1.417   1_655  A
C764        C989   1.492       .  S
C765        C766   1.404       .  A
C765        C893   1.497       .  S
C766        H767   1.083       .  S
C769        C770   1.421   1_655  A
C769        C774   1.400       .  A
C769       C1117   1.497       .  S
C770        C771   1.402       .  A
C770       C1277   1.480       .  S
C771        C772   1.403       .  A
C771        H776   1.081       .  S
C772        C773   1.422   1_455  A
C772       C1245   1.497       .  S
C773        C774   1.404       .  A
C773       C1158   1.485       .  S
C774        H775   1.083       .  S
C777        C778   1.422       .  A
C777        C782   1.401       .  A
C777       C1213   1.491       .  S
C778        C779   1.406       .  A
C778       C1053   1.485       .  S
C779        C780   1.402       .  A
C779        H784   1.084       .  S
C780        C781   1.415       .  A
C780       C1085   1.493       .  S
C781        C782   1.398       .  A
C781       C1190   1.477       .  S
C782        H783   1.085       .  S
C785        C786   1.424       .  A
C785        C790   1.408       .  A
C785        C797   1.499       .  S
C786        C787   1.414       .  A
C786        C957   1.499       .  S
C787        C788   1.410       .  A
C787        H792   1.083       .  S
C788        C789   1.419       .  A
C788        C934   1.505       .  S
C789        C790   1.406       .  A
C789        C829   1.490       .  S
C790        H791   1.084       .  S
C793        C794   1.406       .  A
C793        C798   1.415       .  A
C793        H803   1.083       .  S
C794        C795   1.421       .  A
C794        C799   1.515       .  S
C795        C796   1.410       .  A
C795       C2104   1.509       .  S
C796        C797   1.401       .  A
C796       H2105   1.083       .  S
C797        C798   1.423       .  A
C798        C802   1.518       .  S
C799        C804   1.420       .  A
C799        C808   1.410       .  A
C800       C2099   1.506       .  S
C800        F816   1.377       .  S
C800        F817   1.379       .  S
C800        F818   1.384       .  S
H801       C2100   1.083       .  S
C802        F813   1.383       .  S
C802        F814   1.381       .  S
C802        F815   1.381       .  S
C804        C805   1.409       .  A
C804        C809   1.522       .  S
C805        C806   1.412       .  A
C805        H810   1.081       .  S
C806        C807   1.420       .  A
C807        C808   1.420       .  A
C807        C811   1.514       .  S
C808        H812   1.077       .  S
C809        F822   1.384       .  S
C809        F823   1.381       .  S
C809        F824   1.379       .  S
C811        F819   1.380       .  S
C811        F820   1.379       .  S
C811        F821   1.382       .  S
C825        C826   1.408       .  A
C825        C830   1.407       .  A
C825        H835   1.083       .  S
C826        C827   1.415       .  A
C826        C831   1.494       .  S
C827        C828   1.411       .  A
C827        C832   1.515       .  S
C828        C829   1.405       .  A
C828        H833   1.083       .  S
C829        C830   1.414       .  A
C830        C834   1.522       .  S
C831        C836   1.409       .  A
C831        C840   1.412       .  A
C832       F2152   1.379       .  S
C832        F849   1.383       .  S
C832       F2154   1.384       .  S
C834        F845   1.382       .  S
C834        F846   1.384       .  S
C834        F847   1.382       .  S
C836        C837   1.405       .  A
C836        C841   1.520       .  S
C837        C838   1.409       .  A
C837        H842   1.081       .  S
C838        C839   1.415       .  A
C839        C840   1.422       .  A
C839        C843   1.511       .  S
C840        H844   1.083       .  S
C841        F854   1.373       .  S
C841        F855   1.381       .  S
C841        F856   1.380       .  S
C843        F851   1.380       .  S
C843        F852   1.383       .  S
C843       F2157   1.380       .  S
F848       C2136   1.380       .  S
F850       C2136   1.383       .  S
F853       C2147   1.381       .  S
C857        C858   1.409       .  A
C857        C862   1.401       .  A
C857        H867   1.063       .  S
C858        C859   1.426       .  A
C858        C863   1.515       .  S
C859        C860   1.409       .  A
C859        C864   1.514       .  S
C860        C861   1.404       .  A
C860        H865   1.083       .  S
C861        C862   1.412       .  A
C862        C866   1.521   1_455  S
C863        C868   1.428       .  A
C863        C872   1.415       .  A
C864        F880   1.379       .  S
C864        F881   1.382       .  S
C864        F882   1.384       .  S
C866        F877   1.380       .  S
C866        F878   1.383       .  S
C866        F879   1.383       .  S
C868        C869   1.408       .  A
C868        C873   1.524       .  S
C869        C870   1.404       .  A
C869        H874   1.084       .  S
C870        C871   1.414       .  A
C871        C872   1.410       .  A
C871        C875   1.521       .  S
C872        H876   1.078       .  S
C873        F886   1.382       .  S
C873        F887   1.383       .  S
C873        F888   1.381       .  S
C875        F883   1.385       .  S
C875        F884   1.382       .  S
C875        F885   1.383       .  S
C889        C890   1.405       .  A
C889        C894   1.393       .  A
C889        H899   1.082       .  S
C890        C891   1.435       .  A
C890        C895   1.519       .  S
C891        C892   1.422       .  A
C891        C896   1.516       .  S
C892        C893   1.406       .  A
C892        H897   1.084       .  S
C893        C894   1.408       .  A
C894        C898   1.510       .  S
C895        C900   1.426       .  A
C895        C904   1.406       .  A
C896        F912   1.384       .  S
C896        F913   1.380       .  S
C896        F914   1.383       .  S
C898        F909   1.375       .  S
C898        F910   1.381       .  S
C898        F911   1.379       .  S
C900        C901   1.416       .  A
C900        C905   1.514       .  S
C901        C902   1.413       .  A
C901        H906   1.084       .  S
C902        C903   1.417       .  A
C903        C904   1.399       .  A
C903        C907   1.512       .  S
C904        H908   1.078       .  S
C905        F918   1.382       .  S
C905        F919   1.382   1_455  S
C905        F920   1.371   1_455  S
C907        F915   1.372       .  S
C907        F916   1.382       .  S
C907        F917   1.380       .  S
C921        C922   1.407       .  A
C921        C926   1.412       .  A
C921        H931   1.080       .  S
C922        C923   1.429       .  A
C922        C927   1.518       .  S
C923        C924   1.415       .  A
C923        C928   1.516       .  S
C924        C925   1.401       .  A
C924        H929   1.083       .  S
C925        C926   1.420       .  A
C926        C930   1.519       .  S
C927        C932   1.433       .  A
C927        C936   1.414       .  A
C928        F944   1.374       .  S
C928        F945   1.378       .  S
C928        F946   1.385       .  S
C930        F941   1.382       .  S
C930        F942   1.383       .  S
C930        F943   1.383       .  S
C932        C933   1.415       .  A
C932        C937   1.531       .  S
C933        C934   1.401       .  A
C933        H938   1.078       .  S
C934        C935   1.408       .  A
C935        C936   1.416       .  A
C935       C2243   1.517       .  S
C936        H940   1.077       .  S
C937        F950   1.379       .  S
C937        F951   1.381       .  S
C937        F952   1.384       .  S
C939       C2239   1.512       .  S
C939        F947   1.382       .  S
C939        F948   1.372       .  S
C939        F949   1.379       .  S
C953        C954   1.410       .  A
C953        C958   1.410       .  A
C953        H963   1.085       .  S
C954        C955   1.429       .  A
C954        C959   1.508       .  S
C955        C956   1.410       .  A
C955       C2264   1.518       .  S
C956        C957   1.403       .  A
C956       H2265   1.083       .  S
C957        C958   1.415       .  A
C958        C962   1.515       .  S
C959        C964   1.427       .  A
C959        C968   1.413       .  A
C960       C2259   1.519       .  S
C960        F976   1.380       .  S
C960       F2281   1.383       .  S
C960        F978   1.382   1_565  S
H961       C2260   1.084       .  S
C962        F973   1.384       .  S
C962        F974   1.381       .  S
C962        F975   1.381       .  S
C964        C965   1.415       .  A
C964        C969   1.518       .  S
C965        C966   1.405       .  A
C965        H970   1.085       .  S
C966        C967   1.407       .  A
C967        C968   1.412       .  A
C967        C971   1.511       .  S
C968        H972   1.083       .  S
C969        F982   1.382       .  S
C969        F983   1.382       .  S
C969        F984   1.377       .  S
C971        F979   1.380       .  S
C971        F980   1.382       .  S
C971        F981   1.384       .  S
F977       C2264   1.383       .  S
C985        C986   1.403       .  A
C985        C990   1.404       .  A
C985        H995   1.079       .  S
C986        C987   1.421       .  A
C986        C991   1.485       .  S
C987        C988   1.401       .  A
C987        C992   1.517       .  S
C988        C989   1.403       .  A
C988        H993   1.085       .  S
C989        C990   1.417       .  A
C990        C994   1.516       .  S
C991        C996   1.409       .  A
C991       C1000   1.410       .  A
C992       F1008   1.381       .  S
C992       F1009   1.381       .  S
C992       F1010   1.382       .  S
C994       F1005   1.382       .  S
C994       F1006   1.385       .  S
C994       F1007   1.375       .  S
C996        C997   1.401       .  A
C996       C1001   1.513       .  S
C997        C998   1.408       .  A
C997       H1002   1.084       .  S
C998        C999   1.416       .  A
C999       C1000   1.418       .  A
C999       C1003   1.517       .  S
C1000      H1004   1.082       .  S
C1001      F1014   1.372       .  S
C1001      F1015   1.382       .  S
C1001      F1016   1.380       .  S
C1003      F1011   1.382       .  S
C1003      F1012   1.383       .  S
C1003      F1013   1.381       .  S
C1017      C1018   1.403       .  A
C1017      C1022   1.411       .  A
C1017      H1027   1.077       .  S
C1018      C1019   1.425       .  A
C1018      C1023   1.507       .  S
C1019      C1020   1.405       .  A
C1019      C1024   1.511       .  S
C1020      C1021   1.396       .  A
C1020      H1025   1.083       .  S
C1021      C1022   1.423       .  A
C1022      C1026   1.520       .  S
C1023      C1028   1.424       .  A
C1023      C1032   1.401       .  A
C1024      F1040   1.377   1_655  S
C1024      F1041   1.378       .  S
C1024      F1042   1.384       .  S
C1026      F1037   1.383       .  S
C1026      F1038   1.375       .  S
C1026      F1039   1.384       .  S
C1028      C1029   1.413       .  A
C1028      C1033   1.523       .  S
C1029      C1030   1.409       .  A
C1029      H1034   1.082       .  S
C1030      C1031   1.428       .  A
C1031      C1032   1.409       .  A
C1031      C1035   1.517   1_655  S
C1032      H1036   1.085   1_655  S
C1033      F1046   1.380       .  S
C1033      F1047   1.379       .  S
C1033      F1048   1.384       .  S
C1035      F1043   1.377       .  S
C1035      F1044   1.383       .  S
C1035      F1045   1.378       .  S
C1049      C1050   1.401       .  A
C1049      C1054   1.413       .  A
C1049      H1059   1.078       .  S
C1050      C1051   1.409       .  A
C1050      C1055   1.487       .  S
C1051      C1052   1.399       .  A
C1051      C2360   1.506       .  S
C1052      C1053   1.400       .  A
C1052      H2361   1.085       .  S
C1053      C1054   1.422       .  A
C1054      C1058   1.520       .  S
C1055      C1060   1.413       .  A
C1055      C1064   1.404       .  A
C1056      C2355   1.514       .  S
C1056      F1072   1.376       .  S
C1056      F2377   1.368       .  S
C1056      F1074   1.378       .  S
H1057      C2356   1.083       .  S
C1058      F1069   1.382       .  S
C1058      F1070   1.383       .  S
C1058      F1071   1.380       .  S
C1060      C1061   1.396       .  A
C1060      C1065   1.511       .  S
C1061      C1062   1.400       .  A
C1061      H1066   1.085       .  S
C1062      C1063   1.423       .  A
C1063      C1064   1.414       .  A
C1063      C1067   1.517       .  S
C1064      H1068   1.083       .  S
C1065      F1078   1.385       .  S
C1065      F1079   1.383       .  S
C1065      F1080   1.368       .  S
C1067      F1075   1.384       .  S
C1067      F1076   1.383       .  S
C1067      F1077   1.379       .  S
F1073      C2360   1.364       .  S
C1081      C1082   1.400       .  A
C1081      C1086   1.403       .  A
C1081      H1091   1.085       .  S
C1082      C1083   1.412       .  A
C1082      C1087   1.483       .  S
C1083      C1084   1.410       .  A
C1083      C1088   1.518       .  S
C1084      C1085   1.409       .  A
C1084      H1089   1.083       .  S
C1085      C1086   1.422       .  A
C1086      C1090   1.519       .  S
C1087      C1092   1.413       .  A
C1087      C1096   1.406       .  A
C1088      F2408   1.378   1_545  S
C1088      F1105   1.379       .  S
C1088      F1106   1.382       .  S
C1090      F1101   1.383       .  S
C1090      F1102   1.383       .  S
C1090      F1103   1.381       .  S
C1092      C1093   1.401       .  A
C1092      C1097   1.512       .  S
C1093      C1094   1.402       .  A
C1093      H1098   1.086       .  S
C1094      C1095   1.411       .  A
C1095      C1096   1.411       .  A
C1095      C1099   1.506       .  S
C1096      H1100   1.085       .  S
C1097      F1110   1.382       .  S
C1097      F1111   1.382       .  S
C1097      F1112   1.384       .  S
C1099      F1107   1.381   1_545  S
C1099      F1108   1.375       .  S
C1099      F2413   1.383       .  S
F1104      C2392   1.375       .  S
F1109      C2403   1.382       .  S
C1113      C1114   1.401       .  A
C1113      C1118   1.404       .  A
C1113      H1123   1.083       .  S
C1114      C1115   1.419       .  A
C1114      C1119   1.490       .  S
C1115      C1116   1.412       .  A
C1115      C1120   1.521       .  S
C1116      C1117   1.405       .  A
C1116      H1121   1.083       .  S
C1117      C1118   1.411       .  A
C1118      C1122   1.508       .  S
C1119      C1124   1.408       .  A
C1119      C1128   1.402       .  A
C1120      F1136   1.381       .  S
C1120      F1137   1.382       .  S
C1120      F1138   1.385       .  S
C1122      F1133   1.381       .  S
C1122      F1134   1.381       .  S
C1122      F1135   1.375       .  S
C1124      C1125   1.402       .  A
C1124      C1129   1.519       .  S
C1125      C1126   1.411       .  A
C1125      H1130   1.079       .  S
C1126      C1127   1.431       .  A
C1127      C1128   1.416       .  A
C1127      C1131   1.521       .  S
C1128      H1132   1.081       .  S
C1129      F1142   1.384       .  S
C1129      F1143   1.379       .  S
C1129      F1144   1.378       .  S
C1131      F1139   1.383   1_655  S
C1131      F1140   1.383       .  S
C1131      F1141   1.383       .  S
C1145      C1146   1.399       .  A
C1145      C1150   1.402       .  A
C1145      H1155   1.076       .  S
C1146      C1147   1.415       .  A
C1146      C1151   1.488       .  S
C1147      C1148   1.407       .  A
C1147      C1152   1.515       .  S
C1148      C1149   1.408       .  A
C1148      H1153   1.084       .  S
C1149      C1150   1.422       .  A
C1150      C1154   1.526       .  S
C1151      C1156   1.418       .  A
C1151      C1160   1.406       .  A
C1152      F1168   1.383       .  S
C1152      F1169   1.373       .  S
C1152      F1170   1.385       .  S
C1154      F1165   1.380       .  S
C1154      F1166   1.385       .  S
C1154      F1167   1.384       .  S
C1156      C1157   1.400       .  A
C1156      C1161   1.515       .  S
C1157      C1158   1.400       .  A
C1157      H1162   1.078   1_655  S
C1158      C1159   1.413       .  A
C1159      C1160   1.406       .  A
C1159      C1163   1.522       .  S
C1160      H1164   1.074       .  S
C1161      F1174   1.373       .  S
C1161      F1175   1.379   1_655  S
C1161      F1176   1.375       .  S
C1163      F1171   1.384       .  S
C1163      F1172   1.382       .  S
C1163      F1173   1.381       .  S
C1177      C1178   1.398       .  A
C1177      C1182   1.407       .  A
C1177      H1187   1.084       .  S
C1178      C1179   1.421       .  A
C1178      C1183   1.494       .  S
C1179      C1180   1.418       .  A
C1179      C2488   1.523       .  S
C1180      C1181   1.411       .  A
C1180      H1185   1.084       .  S
C1181      C1182   1.432       .  A
C1182      C1186   1.527       .  S
C1183      C1188   1.428       .  A
C1183      C1192   1.403       .  A
C1184      C2483   1.517       .  S
C1184      F1200   1.383       .  S
C1184      F2505   1.380       .  S
C1184      F1202   1.377       .  S
C1186      F1197   1.385       .  S
C1186      F1198   1.382       .  S
C1186      F1199   1.379       .  S
C1188      C1189   1.405       .  A
C1188      C1193   1.516       .  S
C1189      C1190   1.392       .  A
C1189      H1194   1.082       .  S
C1190      C1191   1.408       .  A
C1191      C1192   1.404       .  A
C1191      C1195   1.513       .  S
C1192      H1196   1.079       .  S
C1193      F1206   1.385       .  S
C1193      F1207   1.379       .  S
C1193      F1208   1.379       .  S
C1195      F1203   1.378       .  S
C1195      F2508   1.380       .  S
C1195      F2509   1.382       .  S
F1201      C2488   1.378       .  S
F1204      C2499   1.380       .  S
F1205      C2499   1.375       .  S
C1209      C1210   1.413       .  A
C1209      C1214   1.411       .  A
C1209      H1219   1.084       .  S
C1210      C1211   1.423       .  A
C1210      C1215   1.509       .  S
C1211      C1212   1.402       .  A
C1211      C2520   1.511       .  S
C1212      C1213   1.398       .  A
C1212      H2521   1.084       .  S
C1213      C1214   1.415       .  A
C1214      C1218   1.515       .  S
C1215      C1220   1.421       .  A
C1215      C1224   1.407       .  A
C1216      C2515   1.516       .  S
C1216      F1232   1.379       .  S
C1216      F2537   1.380       .  S
C1216      F1234   1.384       .  S
H1217      C2516   1.083       .  S
C1218      F1229   1.381       .  S
C1218      F1230   1.380       .  S
C1218      F1231   1.382       .  S
C1220      C1221   1.415       .  A
C1220      C1225   1.520       .  S
C1221      C1222   1.412       .  A
C1221      H1226   1.085       .  S
C1222      C1223   1.408       .  A
C1223      C1224   1.405       .  A
C1223      C1227   1.512       .  S
C1224      H1228   1.076       .  S
C1225      F1238   1.381       .  S
C1225      F1239   1.383       .  S
C1225      F1240   1.382       .  S
C1227      F1235   1.381       .  S
C1227      F1236   1.382       .  S
C1227      F2541   1.376       .  S
F1233      C2520   1.383       .  S
F1237      C2531   1.377       .  S
C1241      C1242   1.398       .  A
C1241      C1246   1.399       .  A
C1241      H1251   1.077       .  S
C1242      C1243   1.425       .  A
C1242      C1247   1.487       .  S
C1243      C1244   1.408       .  A
C1243      C1248   1.523       .  S
C1244      C1245   1.406       .  A
C1244      H1249   1.082       .  S
C1245      C1246   1.414       .  A
C1246      C1250   1.511       .  S
C1247      C1252   1.421       .  A
C1247      C1256   1.407       .  A
C1248      F1264   1.382       .  S
C1248      F1265   1.381       .  S
C1248      F1266   1.381       .  S
C1250      F1261   1.381       .  S
C1250      F1262   1.385       .  S
C1250      F1263   1.378       .  S
C1252      C1253   1.397       .  A
C1252      C1257   1.509       .  S
C1253      C1254   1.394       .  A
C1253      H1258   1.084       .  S
C1254      C1255   1.401       .  A
C1255      C1256   1.404       .  A
C1255      C1259   1.513       .  S
C1256      H1260   1.078       .  S
C1257      F1270   1.380       .  S
C1257      F1271   1.378       .  S
C1257      F1272   1.370       .  S
C1259      F1267   1.377   1_455  S
C1259      F1268   1.383       .  S
C1259      F1269   1.380       .  S
C1273      C1274   1.405       .  A
C1273      C1278   1.407       .  A
C1273      H1283   1.080       .  S
C1274      C1275   1.433       .  A
C1274      C1279   1.494       .  S
C1275      C1276   1.397       .  A
C1275      C1280   1.525       .  S
C1276      C1277   1.390       .  A
C1276      H1281   1.084       .  S
C1277      C1278   1.415       .  A
C1278      C1282   1.516       .  S
C1279      C1284   1.425       .  A
C1279      C1288   1.387       .  A
C1280      F1296   1.382       .  S
C1280      F1297   1.381       .  S
C1280      F1298   1.382       .  S
C1282      F1293   1.385       .  S
C1282      F1294   1.380       .  S
C1282      F1295   1.376       .  S
C1284      C1285   1.417       .  A
C1284      C1289   1.517       .  S
C1285      C1286   1.407       .  A
C1285      H1290   1.083       .  S
C1286      C1287   1.431       .  A
C1287      C1288   1.390       .  A
C1287      C1291   1.527       .  S
C1288      H1292   1.072       .  S
C1289      F1302   1.385       .  S
C1289      F1303   1.381       .  S
C1289      F1304   1.380       .  S
C1291      F1299   1.384       .  S
C1291      F1300   1.376       .  S
C1291      F1301   1.384       .  S
C1305      C1958   1.437       .  A
C1305      C1310   1.433       .  A
C1305      C1384   1.523       .  S
C1306      C1957   1.441       .  A
C1306      C1307   1.433       .  A
C1306      C1363   1.551       .  S
C1307      C1308   1.444       .  A
C1307      H1312   1.084       .  S
C1308      C1961   1.441       .  A
C1308      C1338   1.532       .  S
C1309      C1960   1.437       .  A
C1309      C1310   1.432       .  A
C1309      C1409   1.532       .  S
C1310      H1311   1.084       .  S
C1313      C1318   1.449       .  A
C1313      C1365   1.560       .  S
C1314      C1315   1.448       .  A
C1314      C2039   1.572       .  S
C1315      C1316   1.445   1_655  A
C1315      H1320   1.081   1_556  S
C1316      C2063   1.553       .  S
C1317      C1318   1.440   1_455  A
C1317      C1341   1.532       .  S
C1318      H1319   1.083       .  S
Zn1321     O1325   2.023       .  S
Zn1321     O1326   2.170       .  S
Zn1321     O1330   2.117       .  S
Zn1321     O1989   2.034   1_554  S
Zn1322     O1325   1.929   1_556  S
Zn1322     O1327   2.005   1_556  S
Zn1322     O1329   2.046       .  S
Zn1322     O1985   2.018       .  S
Zn1323     O1325   1.940       .  S
Zn1323     O1328   1.927       .  S
Zn1323     O1331   2.000       .  S
Zn1323     O1334   2.111       .  S
Zn1324     O1977   1.930       .  S
Zn1324     O1332   2.093       .  S
Zn1324     O1335   2.067       .  S
Zn1324     O1336   1.978       .  S
O1325     Zn1976   1.932   1_554  S
O1326      C1338   1.286       .  A
O1327      C1339   1.272       .  A
O1328      C1340   1.260       .  A
O1329      C1338   1.274   1_556  A
O1330      C1340   1.289       .  A
O1331      C1339   1.275       .  A
O1332      C1993   1.278       .  A
O1333     Zn1974   2.028       .  S
O1333      C1342   1.281       .  A
O1334      C1341   1.278   1_554  A
O1335      C1342   1.287       .  A
O1336      C1343   1.263       .  A
O1337     Zn1973   2.036       .  S
O1337      C1343   1.275       .  A
C1339      C1874   1.472       .  S
C1340      C1938   1.496       .  S
C1341      O1984   1.281       .  A
C1342      C1833   1.499       .  S
C1343      C1906   1.456       .  S
Zn1344     O1348   1.970       .  S
Zn1344     O1349   1.953       .  S
Zn1344     O1353   2.147       .  S
Zn1344     O1360   2.043       .  S
Zn1345     O1348   2.055   1_556  S
Zn1345     O2002   2.083       .  S
Zn1345     O1352   2.087   1_556  S
Zn1345     O1356   2.155       .  S
Zn1346     O2000   1.953       .  S
Zn1346     O1351   2.120       .  S
Zn1346     O1354   1.948       .  S
Zn1346     O1357   1.958       .  S
Zn1347     O1348   1.957       .  S
Zn1347     O2007   2.020   1_554  S
Zn1347     O1358   2.125       .  S
Zn1347     O1359   2.036       .  S
O1348     Zn1998   1.959   1_554  S
O1349      C1361   1.262       .  A
O1350     Zn1997   2.086       .  S
O1350      C1362   1.286       .  A
O1351      C2015   1.277       .  A
O1352      C1361   1.276       .  A
O1353      C1363   1.282       .  A
O1354      C1362   1.271       .  A
O1355     Zn1999   2.023       .  S
O1355      C1364   1.279       .  A
O1356      C1365   1.279       .  A
O1357      C1364   1.272       .  A
O1358      C1365   1.283   1_554  A
O1359      C1366   1.279       .  A
O1360      C1366   1.284       .  A
C1361      C1714   1.496       .  S
C1362      C1746   1.480       .  S
C1363      O2003   1.283   1_554  A
C1364      C1801   1.473       .  S
C1366      C1778   1.502       .  S
Zn1367     O1371   1.973       .  S
Zn1367     O1372   2.105       .  S
Zn1367     O1376   1.977       .  S
Zn1367     O1383   1.953       .  S
Zn1368     O2023   1.965       .  S
Zn1368     O1373   1.956       .  S
Zn1368     O1375   2.115       .  S
Zn1368     O1379   1.977       .  S
Zn1369     O1371   1.971       .  S
Zn1369     O1374   2.053       .  S
Zn1369     O2029   2.068       .  S
Zn1369     O1380   2.108       .  S
Zn1370     O1371   2.021       .  S
Zn1370     O1378   2.215       .  S
Zn1370     O2033   2.137       .  S
Zn1370     O1382   2.142       .  S
O1371     Zn2020   1.960       .  S
O1372      C1384   1.275       .  A
O1373      C1385   1.267       .  A
O1374      C1386   1.278       .  A
O1375      C2036   1.278       .  A
O1376      C1386   1.271       .  A
O1377     Zn2021   2.068       .  S
O1377      C1385   1.284       .  A
O1378      C1387   1.290       .  A
O1379      C1388   1.271       .  A
O1380      C1387   1.285       .  A
O1381     Zn2022   2.112       .  S
O1381      C1388   1.287       .  A
O1382      C1389   1.295       .  A
O1383      C1389   1.268       .  A
C1384      O2027   1.278       .  A
C1385      C1673   1.486       .  S
C1386      C1650   1.492       .  S
C1387      C1966   1.574       .  S
C1388      C1618   1.488       .  S
C1389      C1577   1.493       .  S
Zn1390     O2046   1.950       .  S
Zn1390     O1395   1.956       .  S
Zn1390     O1399   2.110       .  S
Zn1390     O1406   2.008       .  S
Zn1391     O1394   2.034       .  S
Zn1391     O1396   2.140       .  S
Zn1391     O2050   2.132       .  S
Zn1391     O1402   2.185       .  S
Zn1392     O1394   1.943       .  S
Zn1392     O1397   2.151       .  S
Zn1392     O1400   1.977       .  S
Zn1392     O1403   1.983       .  S
Zn1393     O1394   1.951       .  S
Zn1393     O1401   2.010       .  S
Zn1393     O1404   2.048       .  S
Zn1393     O2057   2.034       .  S
O1394     Zn2042   1.952       .  S
O1395      C1407   1.261       .  A
O1396      C1408   1.292       .  A
O1397      C1409   1.284       .  A
O1398     Zn2043   2.144   1_554  S
O1398      C1407   1.284       .  A
O1399      C2061   1.278       .  A
O1400      C1408   1.273       .  A
O1401      C1410   1.276       .  A
O1402      C1411   1.287       .  A
O1403      C1410   1.275       .  A
O1404      C1411   1.272       .  A
O1405     Zn2045   2.058       .  S
O1405      C1412   1.285       .  A
O1406      C1412   1.277       .  A
C1407      C1458   1.514       .  S
C1408      C1490   1.498       .  S
C1409      O2051   1.277       .  A
C1410      C1554   1.501       .  S
C1411      C1968   1.547       .  S
C1412      C1522   1.477       .  S
C1413      C1414   1.426   1_455  A
C1413      C1418   1.410       .  A
C1413      C1513   1.479       .  S
C1414      C1415   1.410       .  A
C1414      C1682   1.516       .  S
C1415      C1416   1.409       .  A
C1415      H1420   1.080       .  S
C1416      C1417   1.417   1_655  A
C1416      C1641   1.491       .  S
C1417      C1418   1.399       .  A
C1417      C1545   1.497       .  S
C1418      H1419   1.084       .  S
C1421      C1422   1.422   1_655  A
C1421      C1426   1.393       .  A
C1421      C1769   1.495       .  S
C1422      C1423   1.410       .  A
C1422      C1929   1.485       .  S
C1423      C1424   1.409       .  A
C1423      H1428   1.081       .  S
C1424      C1425   1.421   1_455  A
C1424      C1897   1.509       .  S
C1425      C1426   1.399       .  A
C1425      C1810   1.472       .  S
C1426      H1427   1.083       .  S
C1429      C1430   1.421       .  A
C1429      C1434   1.401       .  A
C1429      C1865   1.490       .  S
C1430      C1431   1.407       .  A
C1430      C1705   1.494       .  S
C1431      C1432   1.408       .  A
C1431      H1436   1.083       .  S
C1432      C1433   1.422       .  A
C1432      C1737   1.498       .  S
C1433      C1434   1.401       .  A
C1433      C1842   1.489       .  S
C1434      H1435   1.085       .  S
C1437      C1438   1.431       .  A
C1437      C1442   1.411       .  A
C1437      C1449   1.503       .  S
C1438      C1439   1.417       .  A
C1438      C1609   1.510       .  S
C1439      C1440   1.413       .  A
C1439      H1444   1.084       .  S
C1440      C1441   1.419       .  A
C1440      C1586   1.502       .  S
C1441      C1442   1.406       .  A
C1441      C1481   1.498       .  S
C1442      H1443   1.082       .  S
C1445      C1446   1.407       .  A
C1445      C1450   1.418       .  A
C1445      H1455   1.082       .  S
C1446      C1447   1.421       .  A
C1446      C1451   1.514       .  S
C1447      C1448   1.406       .  A
C1448      C1449   1.399       .  A
C1449      C1450   1.424       .  A
C1450      C1454   1.519       .  S
C1451      C1456   1.419       .  A
C1451      C1460   1.409       .  A
C1452      F1468   1.378       .  S
C1452      F1469   1.377       .  S
C1452      F1470   1.382       .  S
C1454      F1465   1.384       .  S
C1454      F1466   1.381       .  S
C1454      F1467   1.379       .  S
C1456      C1457   1.410       .  A
C1456      C1461   1.523       .  S
C1457      C1458   1.415       .  A
C1457      H1462   1.081       .  S
C1458      C1459   1.420       .  A
C1459      C1460   1.419       .  A
C1459      C1463   1.513       .  S
C1460      H1464   1.079       .  S
C1461      F1474   1.385       .  S
C1461      F1475   1.381       .  S
C1461      F1476   1.381       .  S
C1463      F1471   1.380       .  S
C1463      F1472   1.380       .  S
C1463      F1473   1.382       .  S
C1477      C1478   1.408       .  A
C1477      C1482   1.408       .  A
C1477      H1487   1.083       .  S
C1478      C1479   1.416       .  A
C1478      C1483   1.492       .  S
C1479      C1480   1.410       .  A
C1479      C1484   1.511       .  S
C1480      C1481   1.403       .  A
C1480      H1485   1.082       .  S
C1481      C1482   1.414       .  A
C1482      C1486   1.516       .  S
C1483      C1488   1.410       .  A
C1483      C1492   1.411       .  A
C1484      F1501   1.382       .  S
C1486      F1497   1.384       .  S
C1486      F1498   1.379       .  S
C1486      F1499   1.383       .  S
C1488      C1489   1.406       .  A
C1488      C1493   1.521       .  S
C1489      C1490   1.409       .  A
C1489      H1494   1.083       .  S
C1490      C1491   1.414       .  A
C1491      C1492   1.423       .  A
C1491      C1495   1.512       .  S
C1492      H1496   1.083       .  S
C1493      F1506   1.376       .  S
C1493      F1507   1.380       .  S
C1493      F1508   1.380       .  S
C1495      F1503   1.381       .  S
C1495      F1504   1.383       .  S
C1509      C1510   1.406       .  A
C1509      C1514   1.398       .  A
C1509      H1519   1.072       .  S
C1510      C1511   1.423       .  A
C1510      C1515   1.501       .  S
C1511      C1512   1.405       .  A
C1511      C1516   1.517       .  S
C1512      C1513   1.403       .  A
C1512      H1517   1.084       .  S
C1513      C1514   1.413       .  A
C1514      C1518   1.522   1_455  S
C1515      C1520   1.424       .  A
C1515      C1524   1.411       .  A
C1516      F1532   1.382       .  S
C1516      F1533   1.383       .  S
C1516      F1534   1.384       .  S
C1518      F1529   1.380       .  S
C1518      F1530   1.383       .  S
C1518      F1531   1.382       .  S
C1520      C1521   1.407       .  A
C1520      C1525   1.521       .  S
C1521      C1522   1.403       .  A
C1521      H1526   1.084       .  S
C1522      C1523   1.410       .  A
C1523      C1524   1.405       .  A
C1523      C1527   1.516       .  S
C1524      H1528   1.079       .  S
C1525      F1538   1.378       .  S
C1525      F1539   1.384       .  S
C1525      F1540   1.382       .  S
C1527      F1535   1.385       .  S
C1527      F1536   1.383       .  S
C1527      F1537   1.383       .  S
C1541      C1542   1.408       .  A
C1541      C1546   1.393       .  A
C1541      H1551   1.082       .  S
C1542      C1543   1.437       .  A
C1542      C1547   1.523       .  S
C1543      C1544   1.423       .  A
C1543      C1548   1.517       .  S
C1544      C1545   1.407       .  A
C1544      H1549   1.084       .  S
C1545      C1546   1.404       .  A
C1546      C1550   1.509       .  S
C1547      C1552   1.429       .  A
C1547      C1556   1.409       .  A
C1548      F1564   1.384       .  S
C1548      F1565   1.380       .  S
C1548      F1566   1.383       .  S
C1550      F1561   1.375       .  S
C1550      F1562   1.381       .  S
C1550      F1563   1.378       .  S
C1552      C1553   1.414       .  A
C1552      C1557   1.514       .  S
C1553      C1554   1.412       .  A
C1553      H1558   1.084       .  S
C1554      C1555   1.415       .  A
C1555      C1556   1.398       .  A
C1555      C1559   1.511       .  S
C1556      H1560   1.078       .  S
C1557      F1570   1.382       .  S
C1557      F1571   1.381   1_455  S
C1557      F1572   1.370   1_455  S
C1559      F1567   1.370       .  S
C1559      F1568   1.383       .  S
C1559      F1569   1.381       .  S
C1573      C1574   1.405       .  A
C1573      C1578   1.412       .  A
C1573      H1583   1.080       .  S
C1574      C1575   1.427       .  A
C1574      C1579   1.516       .  S
C1575      C1576   1.414       .  A
C1575      C1580   1.516       .  S
C1576      C1577   1.400       .  A
C1576      H1581   1.083       .  S
C1577      C1578   1.425       .  A
C1578      C1582   1.521       .  S
C1579      C1584   1.430       .  A
C1579      C1588   1.409       .  A
C1580      F1596   1.376       .  S
C1580      F1597   1.382       .  S
C1580      F1598   1.384       .  S
C1582      F1593   1.383       .  S
C1582      F1594   1.385       .  S
C1582      F1595   1.384       .  S
C1584      C1585   1.419       .  A
C1584      C1589   1.527       .  S
C1585      C1586   1.403       .  A
C1585      H1590   1.082       .  S
C1586      C1587   1.412       .  A
C1587      C1588   1.414       .  A
C1588      H1592   1.079       .  S
C1589      F1602   1.380       .  S
C1589      F1603   1.380       .  S
C1589      F1604   1.384       .  S
C1591      F1599   1.370       .  S
C1591      F1600   1.382       .  S
C1591      F1601   1.382       .  S
C1605      C1606   1.407       .  A
C1605      C1610   1.410       .  A
C1605      H1615   1.085       .  S
C1606      C1607   1.429       .  A
C1606      C1611   1.513       .  S
C1607      C1608   1.415       .  A
C1608      C1609   1.405       .  A
C1609      C1610   1.418       .  A
C1610      C1614   1.512       .  S
C1611      C1616   1.428       .  A
C1611      C1620   1.412       .  A
C1612      F1628   1.379       .  S
C1612      F1630   1.383       .  S
C1614      F1625   1.384       .  S
C1614      F1626   1.382       .  S
C1614      F1627   1.381       .  S
C1616      C1617   1.419       .  A
C1616      C1621   1.520       .  S
C1617      C1618   1.406       .  A
C1617      H1622   1.084       .  S
C1618      C1619   1.406       .  A
C1619      C1620   1.410       .  A
C1619      C1623   1.512       .  S
C1620      H1624   1.083       .  S
C1621      F1634   1.382       .  S
C1621      F1635   1.384       .  S
C1621      F1636   1.380       .  S
C1623      F1631   1.382       .  S
C1623      F1632   1.381       .  S
C1623      F1633   1.384       .  S
C1637      C1638   1.403       .  A
C1637      C1642   1.404       .  A
C1637      H1647   1.080       .  S
C1638      C1639   1.420       .  A
C1638      C1643   1.483       .  S
C1639      C1640   1.403       .  A
C1639      C1644   1.522       .  S
C1640      C1641   1.407       .  A
C1640      H1645   1.085       .  S
C1641      C1642   1.416       .  A
C1642      C1646   1.518       .  S
C1643      C1648   1.407       .  A
C1643      C1652   1.412       .  A
C1644      F1660   1.382       .  S
C1644      F1661   1.382       .  S
C1644      F1662   1.383       .  S
C1646      F1657   1.382       .  S
C1646      F1658   1.384       .  S
C1646      F1659   1.378       .  S
C1648      C1649   1.400       .  A
C1648      C1653   1.514       .  S
C1649      C1650   1.407       .  A
C1649      H1654   1.084       .  S
C1650      C1651   1.415       .  A
C1651      C1652   1.419       .  A
C1651      C1655   1.517       .  S
C1652      H1656   1.081       .  S
C1653      F1666   1.377       .  S
C1653      F1667   1.379       .  S
C1653      F1668   1.379       .  S
C1655      F1663   1.382       .  S
C1655      F1664   1.383       .  S
C1655      F1665   1.381       .  S
C1669      C1670   1.401       .  A
C1669      C1674   1.411       .  A
C1669      H1679   1.077       .  S
C1670      C1671   1.423       .  A
C1670      C1675   1.508       .  S
C1671      C1672   1.407       .  A
C1671      C1676   1.508       .  S
C1672      C1673   1.399       .  A
C1672      H1677   1.083       .  S
C1673      C1674   1.423       .  A
C1674      C1678   1.518       .  S
C1675      C1680   1.423       .  A
C1675      C1684   1.401       .  A
C1676      F1692   1.377   1_655  S
C1676      F1693   1.377       .  S
C1676      F1694   1.385       .  S
C1678      F1689   1.383       .  S
C1678      F1690   1.375       .  S
C1678      F1691   1.384       .  S
C1680      C1681   1.414       .  A
C1680      C1685   1.520       .  S
C1681      C1682   1.407       .  A
C1681      H1686   1.082       .  S
C1682      C1683   1.430       .  A
C1683      C1684   1.411       .  A
C1683      C1687   1.515   1_655  S
C1684      H1688   1.084   1_655  S
C1685      F1698   1.380       .  S
C1685      F1699   1.380       .  S
C1685      F1700   1.384       .  S
C1687      F1695   1.380       .  S
C1687      F1696   1.383       .  S
C1687      F1697   1.378       .  S
C1701      C1702   1.398       .  A
C1701      C1706   1.413       .  A
C1701      H1711   1.073       .  S
C1702      C1703   1.411       .  A
C1702      C1707   1.492       .  S
C1703      C1704   1.406       .  A
C1704      C1705   1.407       .  A
C1705      C1706   1.424       .  A
C1706      C1710   1.523       .  S
C1707      C1712   1.412       .  A
C1707      C1716   1.405       .  A
C1708      F1724   1.379       .  S
C1708      F1726   1.372   1_545  S
C1710      F1721   1.382       .  S
C1710      F1722   1.383       .  S
C1710      F1723   1.378       .  S
C1712      C1713   1.397       .  A
C1712      C1717   1.514       .  S
C1713      C1714   1.407       .  A
C1713      H1718   1.082       .  S
C1714      C1715   1.426       .  A
C1715      C1716   1.417       .  A
C1715      C1719   1.516       .  S
C1716      H1720   1.083       .  S
C1717      F1730   1.385       .  S
C1717      F1731   1.382       .  S
C1717      F1732   1.373       .  S
C1719      F1727   1.384       .  S
C1719      F1728   1.382       .  S
C1719      F1729   1.379       .  S
C1733      C1734   1.401       .  A
C1733      C1738   1.399       .  A
C1733      H1743   1.085       .  S
C1734      C1735   1.420       .  A
C1734      C1739   1.481       .  S
C1735      C1736   1.408       .  A
C1735      C1740   1.523       .  S
C1736      C1737   1.411       .  A
C1736      H1741   1.083       .  S
C1737      C1738   1.419       .  A
C1738      C1742   1.518       .  S
C1739      C1744   1.409       .  A
C1739      C1748   1.411       .  A
C1740      F1757   1.381       .  S
C1740      F1758   1.383       .  S
C1742      F1753   1.384       .  S
C1742      F1754   1.381       .  S
C1742      F1755   1.382       .  S
C1744      C1745   1.399       .  A
C1744      C1749   1.519       .  S
C1745      C1746   1.406       .  A
C1745      H1750   1.084       .  S
C1746      C1747   1.409       .  A
C1747      C1748   1.416       .  A
C1747      C1751   1.510       .  S
C1748      H1752   1.083       .  S
C1749      F1762   1.373       .  S
C1749      F1763   1.382       .  S
C1749      F1764   1.379       .  S
C1751      F1759   1.381       .  S
C1751      F1760   1.382       .  S
C1765      C1766   1.402       .  A
C1765      C1770   1.405       .  A
C1765      H1775   1.082       .  S
C1766      C1767   1.419       .  A
C1766      C1771   1.489       .  S
C1767      C1768   1.411       .  A
C1767      C1772   1.521       .  S
C1768      C1769   1.405       .  A
C1768      H1773   1.083       .  S
C1769      C1770   1.410       .  A
C1770      C1774   1.511       .  S
C1771      C1776   1.409       .  A
C1771      C1780   1.400       .  A
C1772      F1788   1.381       .  S
C1772      F1789   1.383       .  S
C1772      F1790   1.385       .  S
C1774      F1785   1.382       .  S
C1774      F1786   1.381       .  S
C1774      F1787   1.376       .  S
C1776      C1777   1.405       .  A
C1776      C1781   1.517       .  S
C1777      C1778   1.409       .  A
C1777      H1782   1.082       .  S
C1778      C1779   1.431       .  A
C1779      C1780   1.412       .  A
C1779      C1783   1.522       .  S
C1780      H1784   1.082       .  S
C1781      F1794   1.384       .  S
C1781      F1795   1.379       .  S
C1781      F1796   1.378       .  S
C1783      F1791   1.384       .  S
C1783      F1792   1.384       .  S
C1783      F1793   1.383       .  S
C1797      C1798   1.398       .  A
C1797      C1802   1.399       .  A
C1797      H1807   1.076       .  S
C1798      C1799   1.414       .  A
C1798      C1803   1.480       .  S
C1799      C1800   1.405       .  A
C1799      C1804   1.519       .  S
C1800      C1801   1.409       .  A
C1800      H1805   1.084       .  S
C1801      C1802   1.425       .  A
C1802      C1806   1.528       .  S
C1803      C1808   1.419       .  A
C1803      C1812   1.408       .  A
C1804      F1820   1.384       .  S
C1804      F1821   1.384       .  S
C1804      F1822   1.369       .  S
C1806      F1817   1.381       .  S
C1806      F1818   1.385       .  S
C1806      F1819   1.384       .  S
C1808      C1809   1.396       .  A
C1808      C1813   1.518       .  S
C1809      C1810   1.397       .  A
C1809      H1814   1.079   1_655  S
C1810      C1811   1.411       .  A
C1811      C1812   1.402       .  A
C1811      C1815   1.521       .  S
C1812      H1816   1.082       .  S
C1813      F1826   1.378   1_655  S
C1813      F1827   1.373       .  S
C1813      F1828   1.372       .  S
C1815      F1823   1.384       .  S
C1815      F1824   1.383       .  S
C1815      F1825   1.382       .  S
C1829      C1830   1.400       .  A
C1829      C1834   1.408       .  A
C1829      H1839   1.083       .  S
C1830      C1831   1.418       .  A
C1830      C1835   1.490       .  S
C1831      C1832   1.415       .  A
C1832      C1833   1.408       .  A
C1832      H1837   1.082       .  S
C1833      C1834   1.428       .  A
C1834      C1838   1.521       .  S
C1835      C1840   1.423       .  A
C1835      C1844   1.394       .  A
C1836      F1852   1.375       .  S
C1836      F1854   1.383       .  S
C1838      F1849   1.385       .  S
C1838      F1850   1.382       .  S
C1838      F1851   1.382       .  S
C1840      C1841   1.409       .  A
C1840      C1845   1.513       .  S
C1841      C1842   1.402       .  A
C1841      H1846   1.083       .  S
C1842      C1843   1.416       .  A
C1843      C1844   1.399       .  A
C1843      C1847   1.508       .  S
C1844      H1848   1.082       .  S
C1845      F1858   1.385       .  S
C1845      F1859   1.381       .  S
C1845      F1860   1.377       .  S
C1847      F1855   1.380       .  S
C1861      C1862   1.402       .  A
C1861      C1866   1.402       .  A
C1861      H1871   1.082       .  S
C1862      C1863   1.416       .  A
C1862      C1867   1.491       .  S
C1863      C1864   1.407       .  A
C1864      C1865   1.405       .  A
C1865      C1866   1.418       .  A
C1866      C1870   1.514       .  S
C1867      C1872   1.414       .  A
C1867      C1876   1.403       .  A
C1868      F1884   1.380       .  S
C1868      F1886   1.383       .  S
C1870      F1881   1.383       .  S
C1870      F1882   1.379       .  S
C1870      F1883   1.380       .  S
C1872      C1873   1.411       .  A
C1872      C1877   1.520       .  S
C1873      C1874   1.412       .  A
C1873      H1878   1.083       .  S
C1874      C1875   1.406       .  A
C1875      C1876   1.401       .  A
C1875      C1879   1.514       .  S
C1876      H1880   1.073       .  S
C1877      F1890   1.383       .  S
C1877      F1891   1.380       .  S
C1877      F1892   1.383       .  S
C1879      F1887   1.382       .  S
C1879      F1888   1.382       .  S
C1893      C1894   1.402       .  A
C1893      C1898   1.409       .  A
C1893      H1903   1.078       .  S
C1894      C1895   1.419       .  A
C1894      C1899   1.502       .  S
C1895      C1896   1.414       .  A
C1895      C1900   1.518       .  S
C1896      C1897   1.408       .  A
C1896      H1901   1.081       .  S
C1897      C1898   1.417       .  A
C1898      C1902   1.511       .  S
C1899      C1904   1.420       .  A
C1899      C1908   1.409       .  A
C1900      F1916   1.374       .  S
C1900      F1917   1.378       .  S
C1900      F1918   1.385       .  S
C1902      F1913   1.380       .  S
C1902      F1914   1.383       .  S
C1902      F1915   1.378       .  S
C1904      C1905   1.401       .  A
C1904      C1909   1.502       .  S
C1905      C1906   1.395       .  A
C1905      H1910   1.084       .  S
C1906      C1907   1.404       .  A
C1907      C1908   1.409       .  A
C1907      C1911   1.513       .  S
C1908      H1912   1.078       .  S
C1909      F1922   1.383       .  S
C1909      F1923   1.379       .  S
C1909      F1924   1.368       .  S
C1911      F1919   1.374   1_455  S
C1911      F1920   1.383       .  S
C1911      F1921   1.379       .  S
C1925      C1926   1.406       .  A
C1925      C1930   1.406       .  A
C1925      H1935   1.083       .  S
C1926      C1927   1.432       .  A
C1926      C1931   1.497       .  S
C1927      C1928   1.401       .  A
C1927      C1932   1.525       .  S
C1928      C1929   1.394       .  A
C1928      H1933   1.084       .  S
C1929      C1930   1.415       .  A
C1930      C1934   1.515       .  S
C1931      C1936   1.427       .  A
C1931      C1940   1.389       .  A
C1932      F1948   1.383       .  S
C1932      F1949   1.381       .  S
C1932      F1950   1.383   1_455  S
C1934      F1945   1.385       .  S
C1934      F1946   1.380       .  S
C1934      F1947   1.376       .  S
C1936      C1937   1.415       .  A
C1936      C1941   1.519       .  S
C1937      C1938   1.407       .  A
C1937      H1942   1.084       .  S
C1938      C1939   1.435       .  A
C1939      C1940   1.392       .  A
C1939      C1943   1.530       .  S
C1940      H1944   1.073       .  S
C1941      F1954   1.384       .  S
C1941      F1955   1.383       .  S
C1941      F1956   1.380       .  S
C1943      F1951   1.385       .  S
C1943      F1952   1.376       .  S
C1943      F1953   1.384       .  S
C1957      C1962   1.433       .  A
C1957      C2036   1.519       .  S
C1958      C1959   1.430       .  A
C1958      C2015   1.538       .  S
C1959      C1960   1.439       .  A
C1959      H1964   1.084       .  S
C1960      C1990   1.529       .  S
C1961      C1962   1.430       .  A
C1961      C2061   1.538       .  S
C1962      H1963   1.085       .  S
C1965      C1970   1.442       .  A
C1965      C2017   1.559       .  S
C1966      C1967   1.449       .  A
C1967      C1968   1.445   1_655  A
C1967      H1972   1.081       .  S
C1969      C1970   1.437   1_455  A
C1969      C1993   1.521       .  S
C1970      H1971   1.084       .  S
Zn1973     O1977   2.017       .  S
Zn1973     O1978   2.155       .  S
Zn1973     O1982   2.097       .  S
Zn1974     O1977   1.917       .  S
Zn1974     O1979   2.017       .  S
Zn1974     O1981   2.053       .  S
Zn1975     O1977   1.939       .  S
Zn1975     O1980   1.921       .  S
Zn1975     O1983   1.992       .  S
Zn1975     O1986   2.098       .  S
Zn1976     O1984   2.123       .  S
Zn1976     O1987   2.082       .  S
Zn1976     O1988   1.979       .  S
O1978      C1990   1.285       .  A
O1979      C1991   1.273       .  A
O1980      C1992   1.260       .  A
O1981      C1990   1.275       .  A
O1982      C1992   1.287       .  A
O1983      C1991   1.273       .  A
O1985      C1994   1.279       .  A
O1986      C1993   1.276       .  A
O1987      C1994   1.288       .  A
O1988      C1995   1.266       .  A
O1989      C1995   1.276       .  A
C1991      C2526   1.473       .  S
C1992      C2590   1.489       .  S
C1994      C2485   1.499       .  S
C1995      C2558   1.454       .  S
Zn1996     O2000   1.960       .  S
Zn1996     O2001   1.951       .  S
Zn1996     O2005   2.141       .  S
Zn1996     O2012   2.027       .  S
Zn1997     O2000   2.053       .  S
Zn1997     O2004   2.079       .  S
Zn1997     O2008   2.140       .  S
Zn1998     O2003   2.159       .  S
Zn1998     O2006   1.979       .  S
Zn1998     O2009   1.995       .  S
Zn1999     O2000   1.944       .  S
Zn1999     O2010   2.139       .  S
Zn1999     O2011   2.034       .  S
O2001      C2013   1.263       .  A
O2002      C2014   1.285       .  A
O2004      C2013   1.274       .  A
O2005      C2015   1.281       .  A
O2006      C2014   1.275       .  A
O2007      C2016   1.278       .  A
O2008      C2017   1.277       .  A
O2009      C2016   1.277       .  A
O2010      C2017   1.285       .  A
O2011      C2018   1.280       .  A
O2012      C2018   1.282       .  A
C2013      C2366   1.491       .  S
C2014      C2398   1.479       .  S
C2016      C2453   1.478       .  S
C2018      C2430   1.496       .  S
Zn2019     O2023   1.973   1_556  S
Zn2019     O2024   2.091       .  S
Zn2019     O2028   1.968       .  S
Zn2019     O2035   1.952       .  S
Zn2020     O2025   1.962       .  S
Zn2020     O2027   2.111       .  S
Zn2020     O2031   1.978       .  S
Zn2021     O2023   1.977       .  S
Zn2021     O2026   2.051   1_554  S
Zn2021     O2032   2.105       .  S
Zn2022     O2023   2.017       .  S
Zn2022     O2030   2.208   1_554  S
Zn2022     O2034   2.115   1_554  S
O2024      C2036   1.273   1_556  A
O2025      C2037   1.267       .  A
O2026      C2038   1.278       .  A
O2028      C2038   1.269       .  A
O2029      C2037   1.286       .  A
O2030      C2039   1.289       .  A
O2031      C2040   1.271       .  A
O2032      C2039   1.282   1_554  A
O2033      C2040   1.290       .  A
O2034      C2041   1.291       .  A
O2035      C2041   1.268       .  A
C2037      C2325   1.490       .  S
C2038      C2302   1.493       .  S
C2040      C2270   1.493       .  S
C2041      C2229   1.485       .  S
Zn2042     O2047   1.952       .  S
Zn2042     O2051   2.096       .  S
Zn2042     O2058   2.019       .  S
Zn2043     O2046   2.042   1_556  S
Zn2043     O2048   2.124       .  S
Zn2043     O2054   2.188       .  S
Zn2044     O2046   1.933   1_556  S
Zn2044     O2049   2.158       .  S
Zn2044     O2052   1.979       .  S
Zn2044     O2055   1.943       .  S
Zn2045     O2046   1.951       .  S
Zn2045     O2053   2.042   1_554  S
Zn2045     O2056   2.064       .  S
O2047      C2059   1.260       .  A
O2048      C2060   1.289       .  A
O2049      C2061   1.284   1_556  A
O2050      C2059   1.284       .  A
O2052      C2060   1.274       .  A
O2053      C2062   1.283       .  A
O2054      C2063   1.287       .  A
O2055      C2062   1.271       .  A
O2056      C2063   1.274   1_554  A
O2057      C2064   1.282       .  A
O2058      C2064   1.279       .  A
C2059      C2110   1.508       .  S
C2060      C2142   1.498       .  S
C2062      C2206   1.482       .  S
C2064      C2174   1.477       .  S
C2065      C2066   1.425   1_455  A
C2065      C2070   1.412       .  A
C2065      C2165   1.488       .  S
C2066      C2067   1.406       .  A
C2066      C2334   1.507       .  S
C2067      C2068   1.403       .  A
C2067      H2072   1.079       .  S
C2068      C2069   1.417   1_655  A
C2068      C2293   1.493       .  S
C2069      C2070   1.405       .  A
C2069      C2197   1.494       .  S
C2070      H2071   1.083       .  S
C2073      C2074   1.422   1_655  A
C2073      C2078   1.396       .  A
C2073      C2421   1.492       .  S
C2074      C2075   1.408       .  A
C2074      C2581   1.487       .  S
C2075      C2076   1.408       .  A
C2075      H2080   1.081       .  S
C2076      C2077   1.422   1_455  A
C2076      C2549   1.504       .  S
C2077      C2078   1.401       .  A
C2077      C2462   1.480       .  S
C2078      H2079   1.084       .  S
C2081      C2082   1.421       .  A
C2081      C2086   1.401       .  A
C2081      C2517   1.494       .  S
C2082      C2083   1.406       .  A
C2082      C2357   1.487       .  S
C2083      C2084   1.403       .  A
C2083      H2088   1.084       .  S
C2084      C2085   1.420       .  A
C2084      C2389   1.493       .  S
C2085      C2086   1.403       .  A
C2085      C2494   1.487       .  S
C2086      H2087   1.084       .  S
C2089      C2090   1.432       .  A
C2089      C2094   1.409       .  A
C2089      C2101   1.499       .  S
C2090      C2091   1.417       .  A
C2090      C2261   1.511       .  S
C2091      C2092   1.413       .  A
C2091      H2096   1.084       .  S
C2092      C2093   1.417       .  A
C2092      C2238   1.502       .  S
C2093      C2094   1.402       .  A
C2093      C2133   1.493       .  S
C2094      H2095   1.083       .  S
C2097      C2098   1.406       .  A
C2097      C2102   1.418       .  A
C2097      H2107   1.083       .  S
C2098      C2099   1.417       .  A
C2098      C2103   1.510       .  S
C2099      C2100   1.408       .  A
C2100      C2101   1.400       .  A
C2101      C2102   1.425       .  A
C2102      C2106   1.521       .  S
C2103      C2108   1.416       .  A
C2103      C2112   1.409       .  A
C2104      F2120   1.375       .  S
C2104      F2121   1.380       .  S
C2104      F2122   1.382       .  S
C2106      F2117   1.384       .  S
C2106      F2118   1.381       .  S
C2106      F2119   1.379       .  S
C2108      C2109   1.410       .  A
C2108      C2113   1.521       .  S
C2109      C2110   1.413       .  A
C2109      H2114   1.082       .  S
C2110      C2111   1.419       .  A
C2111      C2112   1.419       .  A
C2111      C2115   1.516       .  S
C2112      H2116   1.079       .  S
C2113      F2126   1.384       .  S
C2113      F2127   1.381       .  S
C2113      F2128   1.379       .  S
C2115      F2123   1.379       .  S
C2115      F2124   1.381       .  S
C2115      F2125   1.381       .  S
C2129      C2130   1.410       .  A
C2129      C2134   1.406       .  A
C2129      H2139   1.083       .  S
C2130      C2131   1.415       .  A
C2130      C2135   1.494       .  S
C2131      C2132   1.410       .  A
C2131      C2136   1.514       .  S
C2132      C2133   1.404       .  A
C2132      H2137   1.080       .  S
C2133      C2134   1.412       .  A
C2134      C2138   1.519       .  S
C2135      C2140   1.407       .  A
C2135      C2144   1.413       .  A
C2136      F2153   1.383       .  S
C2138      F2149   1.383       .  S
C2138      F2150   1.380       .  S
C2138      F2151   1.383       .  S
C2140      C2141   1.404       .  A
C2140      C2145   1.518       .  S
C2141      C2142   1.410       .  A
C2141      H2146   1.084       .  S
C2142      C2143   1.414       .  A
C2143      C2144   1.422       .  A
C2143      C2147   1.511       .  S
C2144      H2148   1.083       .  S
C2145      F2158   1.369       .  S
C2145      F2159   1.381       .  S
C2145      F2160   1.382       .  S
C2147      F2155   1.380       .  S
C2147      F2156   1.383       .  S
C2161      C2162   1.405       .  A
C2161      C2166   1.397       .  A
C2161      H2171   1.073       .  S
C2162      C2163   1.422       .  A
C2162      C2167   1.507       .  S
C2163      C2164   1.408       .  A
C2163      C2168   1.513       .  S
C2164      C2165   1.404       .  A
C2164      H2169   1.084       .  S
C2165      C2166   1.414       .  A
C2166      C2170   1.519   1_455  S
C2167      C2172   1.427       .  A
C2167      C2176   1.416       .  A
C2168      F2184   1.381       .  S
C2168      F2185   1.381       .  S
C2168      F2186   1.384       .  S
C2170      F2181   1.380       .  S
C2170      F2182   1.384       .  S
C2170      F2183   1.382       .  S
C2172      C2173   1.406       .  A
C2172      C2177   1.524       .  S
C2173      C2174   1.402       .  A
C2173      H2178   1.084       .  S
C2174      C2175   1.408       .  A
C2175      C2176   1.408       .  A
C2175      C2179   1.518       .  S
C2176      H2180   1.080       .  S
C2177      F2190   1.381       .  S
C2177      F2191   1.383       .  S
C2177      F2192   1.382       .  S
C2179      F2187   1.384       .  S
C2179      F2188   1.383       .  S
C2179      F2189   1.384       .  S
C2193      C2194   1.405       .  A
C2193      C2198   1.392       .  A
C2193      H2203   1.081       .  S
C2194      C2195   1.436       .  A
C2194      C2199   1.519       .  S
C2195      C2196   1.421       .  A
C2195      C2200   1.517       .  S
C2196      C2197   1.406       .  A
C2196      H2201   1.084       .  S
C2197      C2198   1.408       .  A
C2198      C2202   1.509       .  S
C2199      C2204   1.429       .  A
C2199      C2208   1.410       .  A
C2200      F2216   1.384       .  S
C2200      F2217   1.380       .  S
C2200      F2218   1.383       .  S
C2202      F2213   1.377       .  S
C2202      F2214   1.381       .  S
C2202      F2215   1.375       .  S
C2204      C2205   1.414       .  A
C2204      C2209   1.515       .  S
C2205      C2206   1.409       .  A
C2205      H2210   1.085       .  S
C2206      C2207   1.414       .  A
C2207      C2208   1.395       .  A
C2207      C2211   1.516       .  S
C2208      H2212   1.083       .  S
C2209      F2222   1.382       .  S
C2209      F2223   1.379   1_455  S
C2209      F2224   1.370   1_455  S
C2211      F2219   1.378       .  S
C2211      F2220   1.382       .  S
C2211      F2221   1.378       .  S
C2225      C2226   1.406       .  A
C2225      C2230   1.413       .  A
C2225      H2235   1.082       .  S
C2226      C2227   1.425       .  A
C2226      C2231   1.501       .  S
C2227      C2228   1.408       .  A
C2227      C2232   1.517       .  S
C2228      C2229   1.399       .  A
C2228      H2233   1.085       .  S
C2229      C2230   1.423       .  A
C2230      C2234   1.519       .  S
C2231      C2236   1.425       .  A
C2231      C2240   1.406       .  A
C2232      F2248   1.379       .  S
C2232      F2249   1.379       .  S
C2232      F2250   1.382       .  S
C2234      F2245   1.382       .  S
C2234      F2246   1.381       .  S
C2234      F2247   1.383       .  S
C2236      C2237   1.416       .  A
C2236      C2241   1.525       .  S
C2237      C2238   1.403       .  A
C2237      H2242   1.082       .  S
C2238      C2239   1.413       .  A
C2239      C2240   1.411       .  A
C2240      H2244   1.083       .  S
C2241      F2254   1.380       .  S
C2241      F2255   1.381       .  S
C2241      F2256   1.384       .  S
C2243      F2251   1.367       .  S
C2243      F2252   1.383       .  S
C2243      F2253   1.382       .  S
C2257      C2258   1.408       .  A
C2257      C2262   1.411       .  A
C2257      H2267   1.085       .  S
C2258      C2259   1.429       .  A
C2258      C2263   1.515       .  S
C2259      C2260   1.419       .  A
C2260      C2261   1.408       .  A
C2261      C2262   1.418       .  A
C2262      C2266   1.513       .  S
C2263      C2268   1.428       .  A
C2263      C2272   1.409       .  A
C2264      F2280   1.377       .  S
C2264      F2282   1.383       .  S
C2266      F2277   1.384       .  S
C2266      F2278   1.381       .  S
C2266      F2279   1.381       .  S
C2268      C2269   1.419       .  A
C2268      C2273   1.518       .  S
C2269      C2270   1.407       .  A
C2269      H2274   1.084       .  S
C2270      C2271   1.407       .  A
C2271      C2272   1.413       .  A
C2271      C2275   1.513       .  S
C2272      H2276   1.080       .  S
C2273      F2286   1.383       .  S
C2273      F2287   1.382       .  S
C2273      F2288   1.378       .  S
C2275      F2283   1.381       .  S
C2275      F2284   1.382       .  S
C2275      F2285   1.383       .  S
C2289      C2290   1.399       .  A
C2289      C2294   1.401       .  A
C2289      H2299   1.079       .  S
C2290      C2291   1.419       .  A
C2290      C2295   1.481       .  S
C2291      C2292   1.403       .  A
C2291      C2296   1.517       .  S
C2292      C2293   1.403       .  A
C2292      H2297   1.085       .  S
C2293      C2294   1.417       .  A
C2294      C2298   1.511       .  S
C2295      C2300   1.409       .  A
C2295      C2304   1.408       .  A
C2296      F2312   1.381       .  S
C2296      F2313   1.381       .  S
C2296      F2314   1.384       .  S
C2298      F2309   1.382       .  S
C2298      F2310   1.385       .  S
C2298      F2311   1.374       .  S
C2300      C2301   1.402       .  A
C2300      C2305   1.518       .  S
C2301      C2302   1.411       .  A
C2301      H2306   1.084       .  S
C2302      C2303   1.416       .  A
C2303      C2304   1.415       .  A
C2303      C2307   1.519       .  S
C2304      H2308   1.082       .  S
C2305      F2318   1.374       .  S
C2305      F2319   1.382       .  S
C2305      F2320   1.380       .  S
C2307      F2315   1.379       .  S
C2307      F2316   1.383       .  S
C2307      F2317   1.381       .  S
C2321      C2322   1.398       .  A
C2321      C2326   1.409       .  A
C2321      H2331   1.074       .  S
C2322      C2323   1.420       .  A
C2322      C2327   1.502       .  S
C2323      C2324   1.403       .  A
C2323      C2328   1.507       .  S
C2324      C2325   1.399       .  A
C2324      H2329   1.082       .  S
C2325      C2326   1.428       .  A
C2326      C2330   1.521       .  S
C2327      C2332   1.423       .  A
C2327      C2336   1.399       .  A
C2328      F2344   1.378   1_655  S
C2328      F2345   1.378       .  S
C2328      F2346   1.384       .  S
C2330      F2341   1.382       .  S
C2330      F2342   1.376       .  S
C2330      F2343   1.383       .  S
C2332      C2333   1.411       .  A
C2332      C2337   1.522       .  S
C2333      C2334   1.407       .  A
C2333      H2338   1.082       .  S
C2334      C2335   1.428       .  A
C2335      C2336   1.406       .  A
C2335      C2339   1.515   1_655  S
C2336      H2340   1.084   1_655  S
C2337      F2350   1.381       .  S
C2337      F2351   1.380       .  S
C2337      F2352   1.384       .  S
C2339      F2347   1.380       .  S
C2339      F2348   1.383       .  S
C2339      F2349   1.375       .  S
C2353      C2354   1.398       .  A
C2353      C2358   1.411       .  A
C2353      H2363   1.065       .  S
C2354      C2355   1.410       .  A
C2354      C2359   1.487       .  S
C2355      C2356   1.403       .  A
C2356      C2357   1.406       .  A
C2357      C2358   1.421       .  A
C2358      C2362   1.524       .  S
C2359      C2364   1.409       .  A
C2359      C2368   1.404       .  A
C2360      F2376   1.375       .  S
C2360      F2378   1.377   1_545  S
C2362      F2373   1.383       .  S
C2362      F2374   1.382       .  S
C2362      F2375   1.378       .  S
C2364      C2365   1.394       .  A
C2364      C2369   1.513       .  S
C2365      C2366   1.405       .  A
C2365      H2370   1.083       .  S
C2366      C2367   1.427       .  A
C2367      C2368   1.416       .  A
C2367      C2371   1.517       .  S
C2368      H2372   1.083       .  S
C2369      F2382   1.385       .  S
C2369      F2383   1.382       .  S
C2369      F2384   1.371       .  S
C2371      F2379   1.386       .  S
C2371      F2380   1.381       .  S
C2371      F2381   1.380       .  S
C2385      C2386   1.401       .  A
C2385      C2390   1.402       .  A
C2385      H2395   1.085       .  S
C2386      C2387   1.420       .  A
C2386      C2391   1.483       .  S
C2387      C2388   1.408       .  A
C2387      C2392   1.524       .  S
C2388      C2389   1.408       .  A
C2388      H2393   1.084       .  S
C2389      C2390   1.419       .  A
C2390      C2394   1.519       .  S
C2391      C2396   1.406       .  A
C2391      C2400   1.407       .  A
C2392      F2409   1.380       .  S
C2392      F2410   1.382       .  S
C2394      F2405   1.383       .  S
C2394      F2406   1.382       .  S
C2394      F2407   1.382       .  S
C2396      C2397   1.401       .  A
C2396      C2401   1.512       .  S
C2397      C2398   1.405       .  A
C2397      H2402   1.085       .  S
C2398      C2399   1.413       .  A
C2399      C2400   1.413       .  A
C2399      C2403   1.507       .  S
C2400      H2404   1.085       .  S
C2401      F2414   1.378       .  S
C2401      F2415   1.383       .  S
C2401      F2416   1.381       .  S
C2403      F2411   1.380       .  S
C2403      F2412   1.379       .  S
C2417      C2418   1.398       .  A
C2417      C2422   1.401       .  A
C2417      H2427   1.083       .  S
C2418      C2419   1.418       .  A
C2418      C2423   1.479       .  S
C2419      C2420   1.410       .  A
C2419      C2424   1.521       .  S
C2420      C2421   1.403       .  A
C2420      H2425   1.083       .  S
C2421      C2422   1.409       .  A
C2422      C2426   1.502       .  S
C2423      C2428   1.405       .  A
C2423      C2432   1.398       .  A
C2424      F2440   1.381       .  S
C2424      F2441   1.381       .  S
C2424      F2442   1.384       .  S
C2426      F2437   1.380       .  S
C2426      F2438   1.380       .  S
C2426      F2439   1.375       .  S
C2428      C2429   1.404       .  A
C2428      C2433   1.518       .  S
C2429      C2430   1.410       .  A
C2429      H2434   1.081       .  S
C2430      C2431   1.429       .  A
C2431      C2432   1.408       .  A
C2431      C2435   1.523       .  S
C2432      H2436   1.080       .  S
C2433      F2446   1.384       .  S
C2433      F2447   1.378       .  S
C2433      F2448   1.377       .  S
C2435      F2443   1.383   1_655  S
C2435      F2444   1.383       .  S
C2435      F2445   1.383       .  S
C2449      C2450   1.402       .  A
C2449      C2454   1.403       .  A
C2449      H2459   1.075       .  S
C2450      C2451   1.414       .  A
C2450      C2455   1.488       .  S
C2451      C2452   1.406       .  A
C2451      C2456   1.515       .  S
C2452      C2453   1.406       .  A
C2452      H2457   1.083       .  S
C2453      C2454   1.424       .  A
C2454      C2458   1.528       .  S
C2455      C2460   1.420       .  A
C2455      C2464   1.408       .  A
C2456      F2472   1.380       .  S
C2456      F2473   1.368       .  S
C2456      F2474   1.384       .  S
C2458      F2469   1.380       .  S
C2458      F2470   1.385       .  S
C2458      F2471   1.383       .  S
C2460      C2461   1.397       .  A
C2460      C2465   1.514       .  S
C2461      C2462   1.397       .  A
C2461      H2466   1.080   1_655  S
C2462      C2463   1.412       .  A
C2463      C2464   1.406       .  A
C2463      C2467   1.520       .  S
C2464      H2468   1.081       .  S
C2465      F2478   1.375       .  S
C2465      F2479   1.379   1_655  S
C2465      F2480   1.371       .  S
C2467      F2475   1.384       .  S
C2467      F2476   1.381       .  S
C2467      F2477   1.381       .  S
C2481      C2482   1.400       .  A
C2481      C2486   1.410       .  A
C2481      H2491   1.083       .  S
C2482      C2483   1.417       .  A
C2482      C2487   1.488       .  S
C2483      C2484   1.411       .  A
C2484      C2485   1.406       .  A
C2484      H2489   1.084       .  S
C2485      C2486   1.430       .  A
C2486      C2490   1.523       .  S
C2487      C2492   1.420       .  A
C2487      C2496   1.393       .  A
C2488      F2504   1.382       .  S
C2488      F2506   1.375       .  S
C2490      F2501   1.386       .  S
C2490      F2502   1.382       .  S
C2490      F2503   1.381       .  S
C2492      C2493   1.405       .  A
C2492      C2497   1.506       .  S
C2493      C2494   1.398       .  A
C2493      H2498   1.083       .  S
C2494      C2495   1.418       .  A
C2495      C2496   1.400       .  A
C2495      C2499   1.503       .  S
C2496      H2500   1.084       .  S
C2497      F2510   1.380       .  S
C2497      F2511   1.379       .  S
C2497      F2512   1.385       .  S
C2499      F2507   1.380       .  S
C2513      C2514   1.401       .  A
C2513      C2518   1.402       .  A
C2513      H2523   1.082       .  S
C2514      C2515   1.415       .  A
C2514      C2519   1.494       .  S
C2515      C2516   1.410       .  A
C2516      C2517   1.406       .  A
C2517      C2518   1.419       .  A
C2518      C2522   1.513       .  S
C2519      C2524   1.416       .  A
C2519      C2528   1.407       .  A
C2520      F2536   1.375       .  S
C2520      F2538   1.379       .  S
C2522      F2533   1.384       .  S
C2522      F2534   1.379       .  S
C2522      F2535   1.381       .  S
C2524      C2525   1.410       .  A
C2524      C2529   1.520       .  S
C2525      C2526   1.410       .  A
C2525      H2530   1.085       .  S
C2526      C2527   1.406       .  A
C2527      C2528   1.404       .  A
C2527      C2531   1.515       .  S
C2528      H2532   1.077       .  S
C2529      F2542   1.382       .  S
C2529      F2543   1.382       .  S
C2529      F2544   1.384       .  S
C2531      F2539   1.382       .  S
C2531      F2540   1.382       .  S
C2545      C2546   1.402       .  A
C2545      C2550   1.404       .  A
C2545      H2555   1.078       .  S
C2546      C2547   1.426       .  A
C2546      C2551   1.499       .  S
C2547      C2548   1.410       .  A
C2547      C2552   1.521       .  S
C2548      C2549   1.406       .  A
C2548      H2553   1.080       .  S
C2549      C2550   1.414       .  A
C2550      C2554   1.511       .  S
C2551      C2556   1.420       .  A
C2551      C2560   1.408       .  A
C2552      F2568   1.381       .  S
C2552      F2569   1.381       .  S
C2552      F2570   1.380       .  S
C2554      F2565   1.381       .  S
C2554      F2566   1.384       .  S
C2554      F2567   1.378       .  S
C2556      C2557   1.399       .  A
C2556      C2561   1.501       .  S
C2557      C2558   1.393       .  A
C2557      H2562   1.084       .  S
C2558      C2559   1.401       .  A
C2559      C2560   1.410       .  A
C2559      C2563   1.512       .  S
C2560      H2564   1.072       .  S
C2561      F2574   1.383       .  S
C2561      F2575   1.380       .  S
C2561      F2576   1.371       .  S
C2563      F2571   1.375   1_455  S
C2563      F2572   1.383       .  S
C2563      F2573   1.378       .  S
C2577      C2578   1.404       .  A
C2577      C2582   1.406       .  A
C2577      H2587   1.083       .  S
C2578      C2579   1.430       .  A
C2578      C2583   1.490       .  S
C2579      C2580   1.399       .  A
C2579      C2584   1.525       .  S
C2580      C2581   1.395       .  A
C2580      H2585   1.084       .  S
C2581      C2582   1.418       .  A
C2582      C2586   1.515       .  S
C2583      C2588   1.426       .  A
C2583      C2592   1.390       .  A
C2584      F2600   1.382       .  S
C2584      F2601   1.380       .  S
C2584      F2602   1.382   1_455  S
C2586      F2597   1.385       .  S
C2586      F2598   1.379       .  S
C2586      F2599   1.374       .  S
C2588      C2589   1.411       .  A
C2588      C2593   1.517       .  S
C2589      C2590   1.405       .  A
C2589      H2594   1.084       .  S
C2590      C2591   1.433       .  A
C2591      C2592   1.390       .  A
C2591      C2595   1.529       .  S
C2592      H2596   1.076       .  S
C2593      F2606   1.385       .  S
C2593      F2607   1.382       .  S
C2593      F2608   1.379       .  S
C2595      F2603   1.385       .  S
C2595      F2604   1.379       .  S
C2595      F2605   1.384       .  S
