geometry optimzed in LAMMPS
_audit_creation_date              2020-11-30 
_audit_creation_method            'lammps2cif' 
_symmetry_space_group_name_H-M    'P1' 
_symmetry_Int_Tables_number       1 
_symmetry_cell_setting            triclinic 
loop_ 
_symmetry_equiv_pos_as_xyz 
  x,y,z 
_cell_length_a                    33.34868724 
_cell_length_b                    33.24325916296421 
_cell_length_c                    53.62295083359961 
_cell_angle_alpha                 90.06656319210434 
_cell_angle_beta                  90.09053389532434 
_cell_angle_gamma                 81.51316920392145 
loop_ 
_atom_site_label 
_atom_site_type_symbol 
_atom_site_fract_x 
_atom_site_fract_y 
_atom_site_fract_z 
_atom_site_charge 
Zn1        Zn  0.25118563  0.20223063  0.64312202     1.49700
Zn2        Zn  0.29759144  0.24357675  0.60088135     1.49400
Zn3        Zn  0.20212121  0.25728633  0.60019123     1.49100
Zn4        Zn  0.24741192  0.29659827  0.64364762     1.49500
O5          O  0.24958013  0.24981952  0.62186128    -1.83200
O6          O  0.30241448  0.16344230  0.63850581    -0.73900
O7          O  0.28386199  0.24261539  0.56424765    -0.73700
O8          O  0.17098837  0.21134852  0.60520838    -0.73200
O9          O  0.33470394  0.19195025  0.60876698    -0.73900
O10         O  0.20563112  0.17302855  0.63419204    -0.73500
O11         O  0.21685838  0.25650835  0.56378694    -0.74100
O12         O  0.19685617  0.33553084  0.63880345    -0.73500
O13         O  0.32802226  0.29005772  0.60686242    -0.74200
O14         O  0.16521787  0.30930529  0.60774332    -0.73600
O15         O  0.29328394  0.32613054  0.63671457    -0.74100
O16         O  0.24912534  0.28195656  0.67972122    -0.74000
O17         O  0.24716759  0.21576710  0.67970951    -0.73800
C18         C  0.33271388  0.16315478  0.62413816     0.78000
C19         C  0.25051602  0.24895589  0.55230972     0.78500
C20         C  0.17614301  0.17990445  0.61898317     0.77500
C21         C  0.16703759  0.33701773  0.62393235     0.77800
C22         C  0.32287298  0.32038272  0.62163282     0.79000
C23         C  0.24770609  0.24899086  0.69139503     0.78000
C24         C  0.03211386  0.46925744  0.63095809     0.30900
C25         C  0.46942747  0.03190330  0.62948824     0.30900
C26         C  0.49294453  0.45965619  0.61924018    -0.05300
C27         C  0.01710096  0.48636967  0.65662659    -0.06100
C28         C  0.04037742  0.00738831  0.61650155    -0.06000
C29         C  0.46077213  0.49174227  0.61831796    -0.05300
C30         C  0.48584149  0.01942034  0.65570943    -0.06100
C31         C  0.00812141  0.03971760  0.61602701    -0.06000
C32         C  0.42573906  0.47455858  0.61787001    -0.31400
N33         N  0.43557320  0.43359204  0.61809216     0.15100
C34         C  0.47628133  0.42432738  0.61978797    -0.31400
H35         H  0.49240593  0.39439149  0.62391298     0.17100
C36         C  0.47730837  0.03146625  0.67996720    -0.30300
N37         N  0.00199358  0.00664684  0.69536992     0.13900
C38         C  0.02523446  0.47789727  0.68145185    -0.30300
C39         C  0.02538677  0.07482240  0.61497017    -0.30600
N40         N  0.06596344  0.06492213  0.61372569     0.14400
H41         H  0.00990204  0.10544738  0.61799309     0.17000
C42         C  0.07558060  0.02419065  0.61531416    -0.30600
H43         H  0.10592051  0.00828006  0.61820520     0.17000
H44         H  0.04595128  0.45277880  0.68905362     0.17000
H45         H  0.39526010  0.49083265  0.61940896     0.17100
H46         H  0.45524233  0.05661381  0.68610511     0.17000
Zn47       Zn  0.45297318  0.01606099  0.84995099     1.49700
Zn48       Zn  0.04800848  0.00827795  0.85124317     1.49400
Zn49       Zn  0.99330593  0.05851367  0.89428214     1.49100
Zn50       Zn  0.00405571  0.46312164  0.89332955     1.49500
O51         O  0.99967129  0.01129962  0.87216160    -1.83200
O52         O  0.46884042  0.01268633  0.81402897    -0.73900
O53         O  0.07899145  0.05310049  0.86101077    -0.73700
O54         O  0.44266546  0.09737315  0.88673377    -0.73200
O55         O  0.03513292  0.01261784  0.81431716    -0.73900
O56         O  0.41638881  0.06935059  0.85403779    -0.73500
O57         O  0.04013359  0.08814302  0.88960033    -0.74100
O58         O  0.00119595  0.47701749  0.93033980    -0.73500
O59         O  0.08396210  0.45496527  0.85564621    -0.74200
O60         O  0.99276222  0.04395285  0.93084600    -0.73600
O61         O  0.05612131  0.42527265  0.88703348    -0.74100
O62         O  0.45838316  0.43242746  0.88489345    -0.74000
O63         O  0.42093242  0.47130167  0.85701792    -0.73800
C64         C  0.00202602  0.01260520  0.80245182     0.78000
C65         C  0.07197879  0.08268448  0.87630033     0.78500
C66         C  0.41586577  0.09800989  0.86979864     0.77500
C67         C  0.99707762  0.01005274  0.94226176     0.77800
C68         C  0.08383691  0.42556257  0.87078874     0.79000
C69         C  0.42760779  0.43976328  0.87065592     0.78000
C70         C  0.27980892  0.22876687  0.86422863     0.30900
C71         C  0.21617403  0.29074143  0.86276174     0.30900
C72         C  0.28861709  0.26987468  0.87365336    -0.05300
C73         C  0.26104300  0.23881866  0.83819001    -0.06100
C74         C  0.24249449  0.22200274  0.87939671    -0.06000
C75         C  0.25632064  0.30164545  0.87265958    -0.05300
C76         C  0.22928166  0.27127641  0.83730659    -0.06100
C77         C  0.20967935  0.25385096  0.87862989    -0.06000
C78         C  0.27294327  0.33706323  0.87153468    -0.31400
N79         N  0.31386526  0.32795720  0.87306740     0.15100
C80         C  0.32365868  0.28695314  0.87377914    -0.31400
H81         H  0.35409798  0.27044382  0.87265162     0.17100
C82         C  0.22100010  0.27894462  0.81240592    -0.30300
N83         N  0.24433580  0.25056137  0.79846728     0.13900
C84         C  0.26855401  0.22559257  0.81400710    -0.30300
C85         C  0.17507261  0.23596054  0.88066648    -0.30600
N86         N  0.18553115  0.19526919  0.88300346     0.14400
H87         H  0.14457086  0.25088033  0.87710110     0.17000
C88         C  0.22628287  0.18656938  0.88195362    -0.30600
H89         H  0.24311224  0.15622324  0.88050767     0.17000
H90         H  0.29087075  0.20072145  0.80791052     0.17000
H91         H  0.25651099  0.36688469  0.86744310     0.17100
H92         H  0.20115048  0.30422752  0.80454476     0.17000
Zn93       Zn  0.45409257  0.99657329  0.14191027     1.49700
Zn94       Zn  0.50847692  0.45116452  0.09795543     1.49400
Zn95       Zn  0.49601867  0.04732308  0.10131291     1.49100
Zn96       Zn  0.04837950  0.99389644  0.14323128     1.49500
O97         O  0.50166280  0.99711413  0.12092881    -1.83200
O98         O  0.42334233  0.45255382  0.13039797    -0.73900
O99         O  0.50873202  0.47007120  0.06190791    -0.73700
O100        O  0.44656671  0.08631637  0.11236961    -0.73200
O101        O  0.46072805  0.41981778  0.10042852    -0.73900
O102        O  0.41708675  0.04951396  0.13946816    -0.73500
O103        O  0.49334991  0.03648955  0.06381893    -0.74100
O104        O  0.07998882  0.03952866  0.13692280    -0.73500
O105        O  0.06040360  0.41299306  0.10623865    -0.74200
O106        O  0.04466869  0.07494790  0.10706788    -0.73600
O107        O  0.08651915  0.44336701  0.13799504    -0.74100
O108        O  0.03315280  0.99393508  0.17958589    -0.74000
O109        O  0.46778418  0.98886790  0.17867765    -0.73800
C110        C  0.42897653  0.42463313  0.11395426     0.78000
C111        C  0.50085462  0.00378448  0.05106766     0.78500
C112        C  0.41801606  0.08242506  0.12757948     0.77500
C113        C  0.07523845  0.06901001  0.12159196     0.77800
C114        C  0.08780954  0.41378307  0.12284082     0.79000
C115        C  0.50031589  0.99043104  0.19089713     0.78000
C116        C  0.21983788  0.27772003  0.13358352     0.30900
C117        C  0.28577455  0.21752334  0.13418645     0.30900
C118        C  0.25862178  0.28859037  0.12214971    -0.05300
C119        C  0.23385473  0.26150095  0.15945808    -0.06100
C120        C  0.21433210  0.23826620  0.11991208    -0.06000
C121        C  0.29210595  0.25824062  0.12170432    -0.05300
C122        C  0.26749660  0.23123500  0.15971225    -0.06100
C123        C  0.24812681  0.20731814  0.11963243    -0.06000
C124        C  0.32306602  0.27592788  0.11101560    -0.31400
N125        N  0.31042226  0.31627603  0.10787706     0.15100
C126        C  0.27062670  0.32403538  0.11392725    -0.31400
H127        H  0.25266439  0.35395084  0.11432069     0.17100
C128        C  0.27526246  0.22050716  0.18424471    -0.30300
N129        N  0.24718314  0.24312774  0.19887873     0.13900
C130        C  0.22158616  0.26796663  0.18383712    -0.30300
C131        C  0.23259604  0.17119399  0.11597584    -0.30600
N132        N  0.19166364  0.17907555  0.11522251     0.14400
H133        H  0.24923517  0.14088307  0.11533694     0.17000
C134        C  0.18042008  0.21929962  0.11844953    -0.30600
H135        H  0.14960950  0.23317195  0.12248582     0.17000
H136        H  0.19577625  0.28901328  0.19020947     0.17000
H137        H  0.35345852  0.26168535  0.10676016     0.17100
H138        H  0.30012974  0.19848190  0.19092741     0.17000
C139        C  0.46585754  0.02725597  0.36188464     0.30900
C140        C  0.02850241  0.46283202  0.36429346     0.30900
C141        C  0.45686188  0.48866507  0.37597888    -0.05300
C142        C  0.48300899  0.00999388  0.33700344    -0.06100
C143        C  0.00424576  0.03603411  0.37585894    -0.06000
C144        C  0.48834840  0.45584231  0.37697900    -0.05300
C145        C  0.01455010  0.47750134  0.33817318    -0.06100
C146        C  0.03586689  0.00340201  0.37731279    -0.06000
C147        C  0.47207296  0.42366869  0.38735093    -0.31400
N148        N  0.43179013  0.43509560  0.39112671     0.15100
C149        C  0.42310271  0.47535229  0.38606304    -0.31400
H150        H  0.39328218  0.49265529  0.38829081     0.17100
C151        C  0.02507953  0.46651438  0.31399824    -0.30300
N152        N  0.50075809  0.99146926  0.29830146     0.13900
C153        C  0.47459981  0.01759924  0.31218898    -0.30300
C154        C  0.06858457  0.01836942  0.38765195    -0.30600
N155        N  0.05930219  0.05918787  0.39048494     0.14400
H156        H  0.09831071  0.00166496  0.39130773     0.17000
C157        C  0.01944757  0.06980274  0.38496559    -0.30600
H158        H  0.00410536  0.10063516  0.38576833     0.17000
H159        H  0.45122293  0.04053499  0.30474828     0.17000
H160        H  0.48727991  0.39308938  0.39042782     0.17100
H161        H  0.04836350  0.44206847  0.30828140     0.17000
Zn162      Zn  0.20006540  0.25319490  0.39647248     1.49700
Zn163      Zn  0.29707468  0.23613893  0.39585818     1.49400
Zn164      Zn  0.24556777  0.19722906  0.35437016     1.49100
Zn165      Zn  0.24915321  0.29283583  0.35439577     1.49500
O166        O  0.24803528  0.24489549  0.37523352    -1.83200
O167        O  0.21654208  0.25595818  0.43239400    -0.73900
O168        O  0.33551667  0.18678800  0.38364391    -0.73700
O169        O  0.19937200  0.16753685  0.36464140    -0.73200
O170        O  0.28225893  0.23139480  0.43234626    -0.73900
O171        O  0.16788908  0.20662120  0.39426184    -0.73500
O172        O  0.29738512  0.15820632  0.35674849    -0.74100
O173        O  0.25218976  0.27709765  0.31779881    -0.73500
O174        O  0.32721983  0.28444343  0.39434715    -0.74200
O175        O  0.24086905  0.21280077  0.31800600    -0.73600
O176        O  0.29532552  0.32278027  0.36449914    -0.74100
O177        O  0.19760759  0.33241691  0.35827542    -0.74000
O178        O  0.16232528  0.30379698  0.38663071    -0.73800
C179        C  0.24940667  0.24375661  0.44405263     0.78000
C180        C  0.33073695  0.15862071  0.36821481     0.78500
C181        C  0.17124418  0.17474479  0.38084526     0.77500
C182        C  0.24625784  0.24488341  0.30625645     0.77800
C183        C  0.32310414  0.31645156  0.38103419     0.79000
C184        C  0.16570837  0.33225800  0.37124763     0.78000
C185        C  0.15041600  0.10693535  0.37271655    -0.20400
C186        C  0.14238840  0.14511912  0.38428961    -0.08500
C187        C  0.10691634  0.15413528  0.39885051     0.30400
C188        C  0.08035625  0.12536692  0.40155945    -0.20400
C189        C  0.08861451  0.08713155  0.38996221    -0.08500
C190        C  0.12394497  0.07845913  0.37529421     0.30400
F191        F  0.13197262  0.04335440  0.36211484    -0.19000
H192        H  0.17711100  0.09910767  0.36124408     0.18800
H193        H  0.05299441  0.13310152  0.41245335     0.18800
F194        F  0.09725568  0.19098372  0.40997560    -0.19000
C195        C  0.10436145  0.43617675  0.36122456    -0.20400
C196        C  0.06429089  0.42786532  0.36373750    -0.08500
C197        C  0.05888933  0.38656970  0.36280526     0.30400
C198        C  0.09183263  0.35583647  0.36639507    -0.20400
C199        C  0.13136297  0.36520669  0.36789792    -0.08500
C200        C  0.13758939  0.40553380  0.36399624     0.30400
F201        F  0.17563287  0.41544024  0.36318405    -0.19000
H202        H  0.11026958  0.46639986  0.35665793     0.18800
H203        H  0.08669030  0.32435886  0.36663093     0.18800
F204        F  0.02326560  0.37546781  0.35541044    -0.19000
C205        C  0.40416902  0.13459060  0.36034424    -0.20400
C206        C  0.36461773  0.12572146  0.36327669    -0.08500
C207        C  0.35759210  0.08553863  0.35952268     0.30400
C208        C  0.39029828  0.05438898  0.35665370    -0.20400
C209        C  0.43049481  0.06224664  0.35888855    -0.08500
C210        C  0.43650731  0.10318602  0.35655142     0.30400
F211        F  0.47227557  0.11289684  0.34833054    -0.19000
H212        H  0.40973981  0.16588085  0.36004626     0.18800
H213        H  0.38392744  0.02418238  0.35251710     0.18400
F214        F  0.31932117  0.07617431  0.35926589    -0.19000
C215        C  0.34288496  0.38454165  0.37225147    -0.20400
C216        C  0.35054047  0.34737322  0.38501070    -0.08500
C217        C  0.38415500  0.34071256  0.40133945     0.30400
C218        C  0.40977502  0.37034295  0.40417502    -0.20400
C219        C  0.40237199  0.40721339  0.39100679    -0.08500
C220        C  0.36833927  0.41395682  0.37503669     0.30400
F221        F  0.36081874  0.44786578  0.36073353    -0.19000
H222        H  0.31741425  0.39075227  0.35958679     0.18800
H223        H  0.43591816  0.36420904  0.41630020     0.18800
F224        F  0.39297931  0.30530847  0.41414161    -0.19000
C225        C  0.25620749  0.20766149  0.26558437    -0.20400
C226        C  0.24582885  0.24447359  0.27859946    -0.08500
C227        C  0.23504404  0.28053868  0.26490913     0.30400
C228        C  0.23506865  0.27967639  0.23883497    -0.20400
C229        C  0.24616024  0.24304309  0.22578676    -0.08500
C230        C  0.25660397  0.20686181  0.23947032     0.30400
F231        F  0.26629793  0.17060587  0.22767900    -0.19000
H232        H  0.26447738  0.17940554  0.27566397     0.18800
H233        H  0.22703803  0.30794539  0.22877404     0.18800
F234        F  0.22375098  0.31659239  0.27667637    -0.19000
C235        C  0.03700137  0.98506357  0.23187062    -0.20400
C236        C  0.50017224  0.98862556  0.21865339    -0.08500
C237        C  0.46337200  0.49150040  0.23214622     0.30400
C238        C  0.46373550  0.49200502  0.25824471    -0.20400
C239        C  0.50096788  0.98932527  0.27148563    -0.08500
C240        C  0.03747616  0.98528539  0.25798047     0.30400
F241        F  0.07349944  0.98331012  0.27006161    -0.19000
H242        H  0.06558656  0.98264757  0.22205857     0.18800
H243        H  0.43528618  0.49474662  0.26821328     0.18800
F244        F  0.42708416  0.49478938  0.22025297    -0.19000
C245        C  0.09952449  0.13032999  0.10402028    -0.20400
C246        C  0.10600425  0.09674819  0.12017808    -0.08500
C247        C  0.14223899  0.08989503  0.13420171     0.30400
C248        C  0.17104227  0.11626531  0.13191385    -0.20400
C249        C  0.16407308  0.14989717  0.11589537    -0.08500
C250        C  0.12814494  0.15664917  0.10192848     0.30400
F251        F  0.12093975  0.18871840  0.08609778    -0.19000
H252        H  0.07210487  0.13643201  0.09290781     0.18800
H253        H  0.19838608  0.11110347  0.14317371     0.18800
F254        F  0.14989614  0.05799341  0.15015914    -0.19000
C255        C  0.15636097  0.31372109  0.11179508    -0.20400
C256        C  0.18448790  0.31264314  0.13159254    -0.08500
C257        C  0.18244103  0.34728633  0.14695930     0.30400
C258        C  0.15111443  0.37994123  0.14396672    -0.20400
C259        C  0.12161597  0.37949339  0.12515614    -0.08500
C260        C  0.12498003  0.34607685  0.10888582     0.30400
F261        F  0.09842355  0.34468217  0.08980224    -0.19000
H262        H  0.15898861  0.29017449  0.09780659     0.18800
H263        H  0.15021619  0.40575115  0.15634426     0.18800
F264        F  0.21150048  0.35042655  0.16429320    -0.19000
C265        C  0.31547690  0.14338460  0.14197608    -0.20400
C266        C  0.32206239  0.18320561  0.13624461    -0.08500
C267        C  0.36287758  0.18965037  0.13448358     0.30400
C268        C  0.39371724  0.15688440  0.13062437    -0.20400
C269        C  0.38532619  0.11686642  0.13178713    -0.08500
C270        C  0.34632660  0.11038430  0.13909565     0.30400
F271        F  0.33767322  0.07225932  0.14302503    -0.19000
H272        H  0.28645157  0.13760395  0.14870144     0.18800
H273        H  0.42454170  0.16268521  0.12823050     0.18800
F274        F  0.37410877  0.22580471  0.14077220    -0.19000
C275        C  0.36459033  0.40172547  0.12740103    -0.20400
C276        C  0.39756238  0.39766146  0.11083246    -0.08500
C277        C  0.39968784  0.36787449  0.09190602     0.30400
C278        C  0.36999619  0.34216644  0.09029564    -0.20400
C279        C  0.33755565  0.34606844  0.10720079    -0.08500
C280        C  0.33506868  0.37630056  0.12571385     0.30400
F281        F  0.30553568  0.37959402  0.14329781    -0.19000
H282        H  0.36200041  0.42407254  0.14224319     0.18800
H283        H  0.37260285  0.31869021  0.07614139     0.18800
F284        F  0.43052357  0.36313644  0.07517587    -0.19000
C285        C  0.99575348  0.47291161  0.98289721    -0.20400
C286        C  0.99736604  0.00919074  0.97010340    -0.08500
C287        C  0.49581922  0.04510783  0.98452521     0.30400
C288        C  0.49683263  0.04314935  0.01068886    -0.20400
C289        C  0.49970071  0.00560948  0.02320195    -0.08500
C290        C  0.99664298  0.47108515  0.00897555     0.30400
F291        F  0.99520418  0.43464756  0.02004901    -0.19000
H292        H  0.99441882  0.44512672  0.97256365     0.18800
H293        H  0.49569026  0.07116922  0.02116835     0.18800
F294        F  0.49373315  0.08207221  0.97345254    -0.19000
C295        C  0.12106395  0.17395872  0.89481278    -0.20400
C296        C  0.15782346  0.16627061  0.88187324    -0.08500
C297        C  0.16639265  0.13077393  0.86733387     0.30400
C298        C  0.13848139  0.10362672  0.86587260    -0.20400
C299        C  0.10147842  0.11137681  0.87867533    -0.08500
C300        C  0.09307669  0.14682039  0.89337360     0.30400
F301        F  0.05775508  0.15570856  0.90614375    -0.19000
H302        H  0.11411737  0.20113439  0.90608686     0.18800
H303        H  0.14574665  0.07671347  0.85440567     0.18800
F304        F  0.20079917  0.12302947  0.85360410    -0.19000
C305        C  0.34539729  0.18962651  0.84684410    -0.20400
C306        C  0.31652471  0.19547103  0.86616190    -0.08500
C307        C  0.32475425  0.17240655  0.88821836     0.30400
C308        C  0.35741538  0.14095177  0.88926574    -0.20400
C309        C  0.38300061  0.13241951  0.86872817    -0.08500
C310        C  0.37746720  0.15747933  0.84765085     0.30400
F311        F  0.40377639  0.15164906  0.82823537    -0.19000
H312        H  0.34372189  0.21023315  0.83119336     0.18800
H313        H  0.36251800  0.12287381  0.90609932     0.18800
F314        F  0.30203119  0.18065127  0.90906927    -0.19000
C315        C  0.14161446  0.37943216  0.88942230    -0.20400
C316        C  0.11621075  0.39064728  0.86903608    -0.08500
C317        C  0.12126079  0.36766153  0.84708004     0.30400
C318        C  0.15207467  0.33441088  0.84534795    -0.20400
C319        C  0.18048233  0.32529550  0.86474855    -0.08500
C320        C  0.17348475  0.34713978  0.88735863     0.30400
F321        F  0.19734863  0.33710922  0.90759934    -0.19000
H322        H  0.13721481  0.39613748  0.90676914     0.18800
H323        H  0.15183412  0.31529193  0.82946221     0.18800
F324        F  0.09531950  0.37636513  0.82762357    -0.19000
C325        C  0.36027171  0.42300502  0.88109142    -0.20400
C326        C  0.39836081  0.41137511  0.87035575    -0.08500
C327        C  0.40837258  0.37256634  0.85992960     0.30400
C328        C  0.38022812  0.34544357  0.86040054    -0.20400
C329        C  0.34210330  0.35656901  0.87166879    -0.08500
C330        C  0.33241496  0.39570590  0.88206314     0.30400
F331        F  0.29679566  0.40704483  0.89410060    -0.19000
H332        H  0.35258135  0.45289728  0.88935646     0.18800
H333        H  0.38823458  0.31585777  0.85186909     0.18800
F334        F  0.44506714  0.36119207  0.84907826    -0.19000
C335        C  0.46552676  0.01605282  0.73523406    -0.20400
C336        C  0.00220113  0.00884239  0.72212552    -0.08500
C337        C  0.03820810  0.50255437  0.73561403     0.30400
C338        C  0.03807993  0.50471112  0.76165429    -0.20400
C339        C  0.00194375  0.01213522  0.77477499    -0.08500
C340        C  0.46521610  0.01752211  0.76125397     0.30400
F341        F  0.42884167  0.02422866  0.77303398    -0.19000
H342        H  0.43694965  0.01987760  0.72522191     0.18800
H343        H  0.06684260  0.50057725  0.77145597     0.18800
F344        F  0.07422193  0.49648430  0.72341882    -0.19000
C345        C  0.21442116  0.25907074  0.51135519    -0.20400
C346        C  0.25062266  0.24729994  0.52461982    -0.08500
C347        C  0.28629519  0.23367459  0.51111852     0.30400
C348        C  0.28555034  0.23226539  0.48504697    -0.20400
C349        C  0.24940785  0.24441636  0.47177433    -0.08500
C350        C  0.21367266  0.25776628  0.48531926     0.30400
F351        F  0.17784322  0.26981204  0.47355204    -0.19000
H352        H  0.18643502  0.26961041  0.52113976     0.18800
H353        H  0.31351960  0.22175100  0.47524355     0.18800
F354        F  0.32196476  0.22138453  0.52299290    -0.19000
C355        C  0.25192002  0.21266276  0.73239270    -0.20400
C356        C  0.24672617  0.24941831  0.71899463    -0.08500
C357        C  0.24066406  0.28640204  0.73228281     0.30400
C358        C  0.24017928  0.28637899  0.75826344    -0.20400
C359        C  0.24545632  0.24972318  0.77165315    -0.08500
C360        C  0.25131169  0.21272236  0.75846592     0.30400
F361        F  0.25527392  0.17664305  0.77068946    -0.19000
H362        H  0.25645873  0.18377740  0.72270836     0.18800
H363        H  0.23606933  0.31524032  0.76795158     0.18800
F364        F  0.23478428  0.32276296  0.72030778    -0.19000
C365        C  0.39569125  0.12423981  0.60634432    -0.20400
C366        C  0.36629070  0.12874549  0.62519828    -0.08500
C367        C  0.36901534  0.09958859  0.64439261     0.30400
C368        C  0.40177662  0.06816141  0.64527187    -0.20400
C369        C  0.43316543  0.06562589  0.62758723    -0.08500
C370        C  0.42800787  0.09249030  0.60704288     0.30400
F371        F  0.45299138  0.08742811  0.58698832    -0.19000
H372        H  0.39329665  0.14490401  0.59062860     0.18800
H373        H  0.40230194  0.04555775  0.65979788     0.18800
F374        F  0.34026359  0.10133879  0.66241391    -0.19000
C375        C  0.10626990  0.37948043  0.60585517    -0.20400
C376        C  0.13380088  0.37149382  0.62562485    -0.08500
C377        C  0.12954058  0.39719841  0.64663238     0.30400
C378        C  0.09743338  0.42910019  0.64804830    -0.20400
C379        C  0.06771496  0.43499494  0.62928665    -0.08500
C380        C  0.07417369  0.41136302  0.60735219     0.30400
F381        F  0.04992188  0.41941909  0.58707151    -0.19000
H382        H  0.10985364  0.36133340  0.58898827     0.18800
H383        H  0.09704877  0.44989173  0.66352607     0.18800
F384        F  0.15621554  0.39163114  0.66591527    -0.19000
C385        C  0.38872423  0.33962583  0.60847015    -0.20400
C386        C  0.35193826  0.34952570  0.62128263    -0.08500
C387        C  0.34342319  0.38734783  0.63351453     0.30400
C388        C  0.37119621  0.41467510  0.63260918    -0.20400
C389        C  0.40769616  0.40488839  0.61953372    -0.08500
C390        C  0.41644217  0.36697610  0.60761445     0.30400
F391        F  0.45121255  0.35683969  0.59447878    -0.19000
H392        H  0.39608096  0.31070567  0.59898897     0.18800
H393        H  0.36423148  0.44346324  0.64226127     0.18800
F394        F  0.30811489  0.39837835  0.64600481    -0.19000
C395        C  0.14946940  0.11922304  0.63518826    -0.20400
C396        C  0.14746672  0.15046047  0.61738151    -0.08500
C397        C  0.11818473  0.15279435  0.59826243     0.30400
C398        C  0.09134206  0.12452654  0.59730779    -0.20400
C399        C  0.09378227  0.09339564  0.61498216    -0.08500
C400        C  0.12283856  0.09083930  0.63401132     0.30400
F401        F  0.12454936  0.06169910  0.65184614    -0.19000
H402        H  0.17146802  0.11686285  0.65020562     0.18800
H403        H  0.06885232  0.12645383  0.58258528     0.18800
F404        F  0.11574100  0.18181945  0.58030968    -0.19000
Zn405      Zn  0.25100019  0.70208943  0.64305012     1.49700
Zn406      Zn  0.29784253  0.74326409  0.60091033     1.49400
Zn407      Zn  0.20217208  0.75730892  0.60014027     1.49100
Zn408      Zn  0.24768984  0.79646987  0.64353899     1.49500
O409        O  0.24967523  0.74968581  0.62179773    -1.83200
O410        O  0.30216844  0.66313922  0.63865287    -0.73900
O411        O  0.28423297  0.74270651  0.56422368    -0.73700
O412        O  0.17067063  0.71147019  0.60509245    -0.73200
O413        O  0.33450895  0.69143423  0.60884505    -0.73900
O414        O  0.20546828  0.67303514  0.63395364    -0.73500
O415        O  0.21721136  0.75656154  0.56382275    -0.74100
O416        O  0.19738691  0.83581687  0.63852259    -0.73500
O417        O  0.32880935  0.78937194  0.60704547    -0.74200
O418        O  0.16553132  0.80964716  0.60753828    -0.73600
O419        O  0.29397868  0.82558810  0.63679319    -0.74100
O420        O  0.24897014  0.78175573  0.67958838    -0.74000
O421        O  0.24664862  0.71562498  0.67961966    -0.73800
C422        C  0.33246707  0.66273469  0.62427552     0.78000
C423        C  0.25085477  0.74919849  0.55231671     0.78500
C424        C  0.17588251  0.67995862  0.61882250     0.77500
C425        C  0.16755487  0.83744860  0.62364310     0.77800
C426        C  0.32371376  0.81969160  0.62182059     0.79000
C427        C  0.24727658  0.74885727  0.69127809     0.78000
C428        C  0.03253579  0.96971295  0.63084013     0.30900
C429        C  0.46927915  0.53176660  0.62974701     0.30900
C430        C  0.49333770  0.95971782  0.61922541    -0.05300
C431        C  0.01765382  0.98708795  0.65648789    -0.06100
C432        C  0.04016710  0.50703727  0.61678847    -0.06000
C433        C  0.46104769  0.99167100  0.61825545    -0.05300
C434        C  0.48551569  0.51894816  0.65593983    -0.06100
C435        C  0.00800211  0.53942094  0.61637339    -0.06000
C436        C  0.42612116  0.97429261  0.61779804    -0.31400
N437        N  0.43613595  0.93332034  0.61804008     0.15100
C438        C  0.47687465  0.92426690  0.61975346    -0.31400
H439        H  0.49315253  0.89440873  0.62388264     0.17100
C440        C  0.47690731  0.53075558  0.68021676    -0.30300
N441        N  0.00121142  0.50550256  0.69553497     0.13900
C442        C  0.02597921  0.97893936  0.68133506    -0.30300
C443        C  0.02532594  0.57448073  0.61537196    -0.30600
N444        N  0.06590073  0.56453843  0.61406542     0.14400
H445        H  0.00987114  0.60511576  0.61840678     0.17000
C446        C  0.07542738  0.52376135  0.61558306    -0.30600
H447        H  0.10575495  0.50771342  0.61829265     0.17000
H448        H  0.04671748  0.95390746  0.68900662     0.17000
H449        H  0.39558447  0.99045732  0.61930167     0.17100
H450        H  0.45495498  0.55595717  0.68640102     0.17000
Zn451      Zn  0.45275146  0.51628893  0.85018072     1.49700
Zn452      Zn  0.04781837  0.50851799  0.85123959     1.49400
Zn453      Zn  0.99339182  0.55875984  0.89438853     1.49100
Zn454      Zn  0.00401395  0.96285393  0.89316186     1.49500
O455        O  0.99962055  0.51153085  0.87229069    -1.83200
O456        O  0.46839177  0.51264553  0.81422086    -0.73900
O457        O  0.07882049  0.55341431  0.86085139    -0.73700
O458        O  0.44291326  0.59776102  0.88681171    -0.73200
O459        O  0.03469692  0.51267511  0.81435259    -0.73900
O460        O  0.41646599  0.56968722  0.85420011    -0.73500
O461        O  0.04026843  0.58824964  0.88966044    -0.74100
O462        O  0.00160069  0.97667056  0.93012540    -0.73500
O463        O  0.08406739  0.95469747  0.85567551    -0.74200
O464        O  0.99270652  0.54430514  0.93095099    -0.73600
O465        O  0.05587471  0.92485255  0.88685311    -0.74100
O466        O  0.45836961  0.93224862  0.88479596    -0.74000
O467        O  0.42141018  0.97081271  0.85656580    -0.73800
C468        C  0.00153485  0.51254069  0.80256912     0.78000
C469        C  0.07195928  0.58289751  0.87622373     0.78500
C470        C  0.41607682  0.59840399  0.86990075     0.77500
C471        C  0.99669421  0.51046449  0.94242000     0.77800
C472        C  0.08373514  0.92520828  0.87072433     0.79000
C473        C  0.42787508  0.93940846  0.87032642     0.78000
C474        C  0.27983889  0.72879123  0.86403655     0.30900
C475        C  0.21626767  0.79076853  0.86271068     0.30900
C476        C  0.28874321  0.76983581  0.87348269    -0.05300
C477        C  0.26101628  0.73894818  0.83802527    -0.06100
C478        C  0.24258250  0.72200629  0.87924763    -0.06000
C479        C  0.25644529  0.80164520  0.87255530    -0.05300
C480        C  0.22927010  0.77141436  0.83721978    -0.06100
C481        C  0.20980128  0.75387281  0.87856057    -0.06000
C482        C  0.27310557  0.83700109  0.87110137    -0.31400
N483        N  0.31402521  0.82785181  0.87238577     0.15100
C484        C  0.32380565  0.78687725  0.87320681    -0.31400
H485        H  0.35421596  0.77036391  0.87190251     0.17100
C486        C  0.22087710  0.77920334  0.81234874    -0.30300
N487        N  0.24413988  0.75086680  0.79834069     0.13900
C488        C  0.26841322  0.72582717  0.81381853    -0.30300
C489        C  0.17518123  0.73603209  0.88066166    -0.30600
N490        N  0.18561369  0.69533728  0.88295963     0.14400
H491        H  0.14466912  0.75098582  0.87715241     0.17000
C492        C  0.22636110  0.68658681  0.88183069    -0.30600
H493        H  0.24315311  0.65623100  0.88032705     0.17000
H494        H  0.29062491  0.70093332  0.80766284     0.17000
H495        H  0.25665937  0.86681998  0.86698936     0.17100
H496        H  0.20084007  0.80453523  0.80457435     0.17000
Zn497      Zn  0.45422763  0.49628038  0.14190428     1.49700
Zn498      Zn  0.50817647  0.95074222  0.09790786     1.49400
Zn499      Zn  0.49600900  0.54781675  0.10153036     1.49100
Zn500      Zn  0.04861537  0.49482226  0.14337607     1.49500
O501        O  0.50178581  0.49746889  0.12101305    -1.83200
O502        O  0.42290204  0.95313532  0.13043594    -0.73900
O503        O  0.50913047  0.96936776  0.06185473    -0.73700
O504        O  0.44670360  0.58658062  0.11308266    -0.73200
O505        O  0.45997122  0.92022515  0.10037125    -0.73900
O506        O  0.41699126  0.54910351  0.13968649    -0.73500
O507        O  0.49254662  0.53717774  0.06402388    -0.74100
O508        O  0.08036079  0.54032729  0.13679122    -0.73500
O509        O  0.05965576  0.91192290  0.10612622    -0.74200
O510        O  0.04508351  0.57541677  0.10680249    -0.73600
O511        O  0.08616716  0.94241288  0.13766823    -0.74100
O512        O  0.03331896  0.49494957  0.17974537    -0.74000
O513        O  0.46800113  0.48836921  0.17860859    -0.73800
C514        C  0.42826491  0.92529589  0.11393176     0.78000
C515        C  0.49997840  0.50452542  0.05120946     0.78500
C516        C  0.41805349  0.58232218  0.12815400     0.77500
C517        C  0.07578584  0.56949098  0.12122910     0.77800
C518        C  0.08723941  0.91273564  0.12260076     0.79000
C519        C  0.50030772  0.49056973  0.19092130     0.78000
C520        C  0.21956669  0.77697342  0.13343597     0.30900
C521        C  0.28590064  0.71728065  0.13478488     0.30900
C522        C  0.25872040  0.78840409  0.12290368    -0.05300
C523        C  0.23244668  0.76040740  0.15942498    -0.06100
C524        C  0.21510988  0.73769840  0.11922340    -0.06000
C525        C  0.29245149  0.75833252  0.12282950    -0.05300
C526        C  0.26624872  0.73034245  0.16006100    -0.06100
C527        C  0.24916386  0.70699568  0.11936636    -0.06000
C528        C  0.32339204  0.77626316  0.11231253    -0.31400
N529        N  0.31035814  0.81646669  0.10885630     0.15100
C530        C  0.27044734  0.82391033  0.11458994    -0.31400
H531        H  0.25206800  0.85360522  0.11443575     0.17100
C532        C  0.27305336  0.71943480  0.18465554    -0.30300
N533        N  0.24433901  0.74187709  0.19894318     0.13900
C534        C  0.21926889  0.76676140  0.18365070    -0.30300
C535        C  0.23417745  0.67069116  0.11526828    -0.30600
N536        N  0.19329142  0.67820860  0.11378319     0.14400
H537        H  0.25106482  0.64048057  0.11501026     0.17000
C538        C  0.18154156  0.71834767  0.11701987    -0.30600
H539        H  0.15048956  0.73180051  0.12074503     0.17000
H540        H  0.19333381  0.78793763  0.18977550     0.17000
H541        H  0.35389106  0.76222713  0.10812305     0.17100
H542        H  0.29774656  0.69755214  0.19166135     0.17000
C543        C  0.46601623  0.52711847  0.36202212     0.30900
C544        C  0.02855485  0.96344401  0.36430941     0.30900
C545        C  0.45674647  0.98866551  0.37570757    -0.05300
C546        C  0.48271405  0.50965089  0.33705646    -0.06100
C547        C  0.00476333  0.53552097  0.37584607    -0.06000
C548        C  0.48844496  0.95606173  0.37686179    -0.05300
C549        C  0.01479179  0.97810974  0.33814696    -0.06100
C550        C  0.03618522  0.50271250  0.37720955    -0.06000
C551        C  0.47228077  0.92363474  0.38701262    -0.31400
N552        N  0.43188845  0.93471069  0.39047470     0.15100
C553        C  0.42291675  0.97493930  0.38541605    -0.31400
H554        H  0.39284080  0.99183453  0.38730848     0.17100
C555        C  0.02550722  0.96721539  0.31397682    -0.30300
N556        N  0.50006480  0.49092185  0.29830477     0.13900
C557        C  0.47414611  0.51723560  0.31224370    -0.30300
C558        C  0.06902304  0.51729137  0.38766684    -0.30600
N559        N  0.05998382  0.55808628  0.39070831     0.14400
H560        H  0.09860588  0.50030214  0.39133678     0.17000
C561        C  0.02017365  0.56902024  0.38516085    -0.30600
H562        H  0.00495633  0.59989521  0.38617510     0.17000
H563        H  0.45091268  0.54035921  0.30484141     0.17000
H564        H  0.48764135  0.89310736  0.39006973     0.17100
H565        H  0.04887713  0.94282603  0.30829024     0.17000
Zn566      Zn  0.19950937  0.75324273  0.39648045     1.49700
Zn567      Zn  0.29661367  0.73637413  0.39589400     1.49400
Zn568      Zn  0.24541292  0.69678848  0.35466878     1.49100
Zn569      Zn  0.24867294  0.79247650  0.35418365     1.49500
O570        O  0.24758357  0.74479401  0.37526838    -1.83200
O571        O  0.21595803  0.75662434  0.43243556    -0.73900
O572        O  0.33533876  0.68692221  0.38405103    -0.73700
O573        O  0.19983215  0.66671486  0.36543164    -0.73200
O574        O  0.28172168  0.73221227  0.43234006    -0.73900
O575        O  0.16762813  0.70632407  0.39457075    -0.73500
O576        O  0.29761579  0.65822715  0.35698061    -0.74100
O577        O  0.25068788  0.77631649  0.31764134    -0.73500
O578        O  0.32672109  0.78460326  0.39408441    -0.74200
O579        O  0.23960111  0.71196726  0.31825884    -0.73600
O580        O  0.29535897  0.82220897  0.36375190    -0.74100
O581        O  0.19738417  0.83243350  0.35823753    -0.74000
O582        O  0.16169504  0.80372959  0.38634140    -0.73800
C583        C  0.24891204  0.74462346  0.44406546     0.78000
C584        C  0.33083053  0.65871459  0.36859522     0.78500
C585        C  0.17152416  0.67403444  0.38150398     0.77500
C586        C  0.24446181  0.74401544  0.30629781     0.77800
C587        C  0.32299132  0.81617494  0.38040147     0.79000
C588        C  0.16533257  0.83228938  0.37106954     0.78000
C589        C  0.15149815  0.60576691  0.37375185    -0.20400
C590        C  0.14304166  0.64408994  0.38512595    -0.08500
C591        C  0.10740545  0.65300157  0.39953532     0.30400
C592        C  0.08095301  0.62412093  0.40213954    -0.20400
C593        C  0.08945895  0.58587072  0.39057858    -0.08500
C594        C  0.12513515  0.57716491  0.37622493     0.30400
F595        F  0.13357884  0.54196946  0.36317254    -0.19000
H596        H  0.17838380  0.59797176  0.36244265     0.18800
H597        H  0.05340855  0.63183719  0.41285580     0.18800
F598        F  0.09741801  0.68989060  0.41055587    -0.19000
C599        C  0.10450510  0.93666064  0.36162467    -0.20400
C600        C  0.06434473  0.92846938  0.36379865    -0.08500
C601        C  0.05880417  0.88724184  0.36235999     0.30400
C602        C  0.09157828  0.85629198  0.36586500    -0.20400
C603        C  0.13114943  0.86543731  0.36772577    -0.08500
C604        C  0.13759672  0.90580319  0.36424041     0.30400
F605        F  0.17572393  0.91551905  0.36363417    -0.19000
H606        H  0.11061531  0.96689308  0.35729096     0.18800
H607        H  0.08629085  0.82485616  0.36576104     0.18800
F608        F  0.02318676  0.87649989  0.35464141    -0.19000
C609        C  0.40439451  0.63464730  0.36093986    -0.20400
C610        C  0.36481545  0.62580675  0.36381645    -0.08500
C611        C  0.35780106  0.58561367  0.36010625     0.30400
C612        C  0.39047722  0.55446517  0.35711699    -0.20400
C613        C  0.43071073  0.56226175  0.35923213    -0.08500
C614        C  0.43674288  0.60323755  0.35709126     0.30400
F615        F  0.47251502  0.61302047  0.34893357    -0.19000
H616        H  0.40997662  0.66593955  0.36069075     0.18800
H617        H  0.38405033  0.52424722  0.35304714     0.18400
F618        F  0.31953666  0.57623191  0.36001095    -0.19000
C619        C  0.34437338  0.88313728  0.37030426    -0.20400
C620        C  0.35074625  0.84689943  0.38408746    -0.08500
C621        C  0.38337548  0.84099231  0.40119826     0.30400
C622        C  0.40912450  0.87053458  0.40393989    -0.20400
C623        C  0.40274602  0.90659171  0.38994286    -0.08500
C624        C  0.36994620  0.91246360  0.37302477     0.30400
F625        F  0.36378680  0.94546973  0.35788413    -0.19000
H626        H  0.31979729  0.88869480  0.35695392     0.18800
H627        H  0.43444669  0.86506352  0.41674801     0.18800
F628        F  0.39098988  0.80648750  0.41498562    -0.19000
C629        C  0.25163849  0.70642468  0.26562286    -0.20400
C630        C  0.24309629  0.74347815  0.27862775    -0.08500
C631        C  0.23341619  0.77969229  0.26489689     0.30400
C632        C  0.23306998  0.77874988  0.23881840    -0.20400
C633        C  0.24272394  0.74188840  0.22582097    -0.08500
C634        C  0.25167270  0.70555805  0.23950614     0.30400
F635        F  0.25974404  0.66916931  0.22767130    -0.19000
H636        H  0.25889911  0.67803359  0.27569618     0.18800
H637        H  0.22610560  0.80709188  0.22870346     0.18800
F638        F  0.22380064  0.81603482  0.27662124    -0.19000
C639        C  0.03704191  0.48511492  0.23201735    -0.20400
C640        C  0.49996931  0.48855415  0.21865633    -0.08500
C641        C  0.46370054  0.99129280  0.23225230     0.30400
C642        C  0.46424915  0.99193293  0.25834639    -0.20400
C643        C  0.50039409  0.48892523  0.27148219    -0.08500
C644        C  0.03733490  0.48511064  0.25812778     0.30400
F645        F  0.07325776  0.48320958  0.27031473    -0.19000
H646        H  0.06567872  0.48295390  0.22227820     0.18800
H647        H  0.43588829  0.99440710  0.26839149     0.18800
F648        F  0.42734589  0.99410484  0.22047536    -0.19000
C649        C  0.10156329  0.62905905  0.10225828    -0.20400
C650        C  0.10702982  0.59669238  0.11935430    -0.08500
C651        C  0.14282239  0.59038697  0.13383133     0.30400
C652        C  0.17203537  0.61623776  0.13119487    -0.20400
C653        C  0.16593722  0.64881510  0.11436245    -0.08500
C654        C  0.13061795  0.65486225  0.09980959     0.30400
F655        F  0.12432079  0.68593076  0.08320650    -0.19000
H656        H  0.07458288  0.63464599  0.09072447     0.18800
H657        H  0.19889202  0.61167950  0.14290537     0.18800
F658        F  0.14955418  0.55966444  0.15067693    -0.19000
C659        C  0.15607388  0.81281028  0.11141255    -0.20400
C660        C  0.18414920  0.81179104  0.13123889    -0.08500
C661        C  0.18191083  0.84637435  0.14666186     0.30400
C662        C  0.15052823  0.87894293  0.14367779    -0.20400
C663        C  0.12105373  0.87844235  0.12486618    -0.08500
C664        C  0.12454314  0.84506689  0.10854926     0.30400
F665        F  0.09799928  0.84363995  0.08946060    -0.19000
H666        H  0.15887212  0.78940372  0.09735584     0.18800
H667        H  0.14954765  0.90470796  0.15608745     0.18800
F668        F  0.21086314  0.84951937  0.16406902    -0.19000
C669        C  0.31560140  0.64327770  0.14286753    -0.20400
C670        C  0.32225155  0.68309699  0.13718651    -0.08500
C671        C  0.36307326  0.68950913  0.13544286     0.30400
C672        C  0.39386402  0.65673095  0.13154439    -0.20400
C673        C  0.38542410  0.61672808  0.13261691    -0.08500
C674        C  0.34642867  0.61025380  0.13996577     0.30400
F675        F  0.33771488  0.57212998  0.14381325    -0.19000
H676        H  0.28641019  0.63751322  0.14937804     0.18800
H677        H  0.42470623  0.66251613  0.12913578     0.18800
F678        F  0.37437310  0.72559091  0.14180927    -0.19000
C679        C  0.36322471  0.90345804  0.12703425    -0.20400
C680        C  0.39665810  0.89860369  0.11081181    -0.08500
C681        C  0.39923707  0.86808123  0.09232699     0.30400
C682        C  0.36974686  0.84216205  0.09098376    -0.20400
C683        C  0.33703218  0.84661587  0.10768581    -0.08500
C684        C  0.33385423  0.87784230  0.12558534     0.30400
F685        F  0.30386794  0.88189723  0.14288830    -0.19000
H686        H  0.36020844  0.92650707  0.14147272     0.18800
H687        H  0.37278509  0.81802417  0.07724908     0.18800
F688        F  0.43042517  0.86270626  0.07585131    -0.19000
C689        C  0.00032015  0.97177113  0.98264468    -0.20400
C690        C  0.99653211  0.50979785  0.97026279    -0.08500
C691        C  0.49737784  0.54539061  0.98459644     0.30400
C692        C  0.49819388  0.54357223  0.01077199    -0.20400
C693        C  0.49829572  0.50641314  0.02336187    -0.08500
C694        C  0.00149575  0.96980075  0.00870877     0.30400
F695        F  0.00407447  0.93270710  0.01962808    -0.19000
H696        H  0.00179013  0.94363666  0.97225192     0.18800
H697        H  0.49930694  0.57131139  0.02120009     0.18800
F698        F  0.49825717  0.58188121  0.97342020    -0.19000
C699        C  0.12122190  0.67398126  0.89486473    -0.20400
C700        C  0.15786056  0.66639922  0.88179419    -0.08500
C701        C  0.16624822  0.63110671  0.86706420     0.30400
C702        C  0.13831271  0.60398763  0.86558607    -0.20400
C703        C  0.10145530  0.61159329  0.87855430    -0.08500
C704        C  0.09319789  0.64688825  0.89339908     0.30400
F705        F  0.05798471  0.65567249  0.90629279    -0.19000
H706        H  0.11440394  0.70103322  0.90625929     0.18800
H707        H  0.14544442  0.57721303  0.85398776     0.18800
F708        F  0.20049995  0.62355921  0.85317637    -0.19000
C709        C  0.34525885  0.68943605  0.84659454    -0.20400
C710        C  0.31654226  0.69552945  0.86598678    -0.08500
C711        C  0.32506397  0.67296906  0.88820437     0.30400
C712        C  0.35787919  0.64169878  0.88937868    -0.20400
C713        C  0.38327700  0.63284333  0.86878469    -0.08500
C714        C  0.37743402  0.65742912  0.84751684     0.30400
F715        F  0.40354461  0.65128150  0.82801410    -0.19000
H716        H  0.34346479  0.70978872  0.83082474     0.18800
H717        H  0.36319573  0.62396440  0.90633377     0.18800
F718        F  0.30242472  0.68150616  0.90906342    -0.19000
C719        C  0.14195367  0.87968921  0.88927037    -0.20400
C720        C  0.11607915  0.89030750  0.86902606    -0.08500
C721        C  0.12073372  0.86684369  0.84725035     0.30400
C722        C  0.15173447  0.83378795  0.84551806    -0.20400
C723        C  0.18058011  0.82526723  0.86472303    -0.08500
C724        C  0.17391126  0.84750520  0.88721558     0.30400
F725        F  0.19818808  0.83799173  0.90733949    -0.19000
H726        H  0.13783575  0.89677984  0.90650166     0.18800
H727        H  0.15140968  0.81426383  0.82970967     0.18800
F728        F  0.09428946  0.87496249  0.82799383    -0.19000
C729        C  0.36074542  0.92248537  0.88093714    -0.20400
C730        C  0.39863742  0.91104320  0.86992270    -0.08500
C731        C  0.40838680  0.87252197  0.85905755     0.30400
C732        C  0.38015692  0.84547662  0.85939761    -0.20400
C733        C  0.34224195  0.85643423  0.87094481    -0.08500
C734        C  0.33281012  0.89528211  0.88174107     0.30400
F735        F  0.29738418  0.90636607  0.89403401    -0.19000
H736        H  0.35326535  0.95215407  0.88952402     0.18800
H737        H  0.38792892  0.81606785  0.85059553     0.18800
F738        F  0.44491479  0.86133939  0.84796154    -0.19000
C739        C  0.46497661  0.51562926  0.73541406    -0.20400
C740        C  0.00146927  0.50768160  0.72228514    -0.08500
C741        C  0.03891087  0.00384122  0.73548812     0.30400
C742        C  0.03871429  0.00560753  0.76154608    -0.20400
C743        C  0.00135090  0.51173196  0.77490307    -0.08500
C744        C  0.46468087  0.51746373  0.76142168     0.30400
F745        F  0.42833788  0.52488374  0.77320040    -0.19000
H746        H  0.43639582  0.51974384  0.72540304     0.18800
H747        H  0.06745400  0.00155688  0.77137418     0.18800
F748        F  0.07494806  0.99821236  0.72331128    -0.19000
C749        C  0.21439193  0.75922194  0.51149076    -0.20400
C750        C  0.25083179  0.74797056  0.52462092    -0.08500
C751        C  0.28655823  0.73526185  0.51097690     0.30400
C752        C  0.28557862  0.73402401  0.48491022    -0.20400
C753        C  0.24915494  0.74546335  0.47177915    -0.08500
C754        C  0.21341398  0.75810103  0.48545610     0.30400
F755        F  0.17734123  0.76948789  0.47382652    -0.19000
H756        H  0.18636370  0.76911878  0.52138154     0.18800
H757        H  0.31358899  0.72415004  0.47499871     0.18800
F758        F  0.32250727  0.72369565  0.52269649    -0.19000
C759        C  0.25148475  0.71269660  0.73232483    -0.20400
C760        C  0.24616279  0.74938859  0.71886944    -0.08500
C761        C  0.23998846  0.78643236  0.73209129     0.30400
C762        C  0.23957354  0.78653785  0.75807533    -0.20400
C763        C  0.24504790  0.74994083  0.77152435    -0.08500
C764        C  0.25096442  0.71287993  0.75839542     0.30400
F765        F  0.25511115  0.67684628  0.77067649    -0.19000
H766        H  0.25611470  0.68377032  0.72268859     0.18800
H767        H  0.23539305  0.81543718  0.76771555     0.18800
F768        F  0.23396024  0.82272454  0.72004105    -0.19000
C769        C  0.39558783  0.62402076  0.60663092    -0.20400
C770        C  0.36604388  0.62836136  0.62539765    -0.08500
C771        C  0.36871757  0.59916359  0.64456571     0.30400
C772        C  0.40158981  0.56787272  0.64550828    -0.20400
C773        C  0.43309923  0.56552485  0.62791007    -0.08500
C774        C  0.42799285  0.59240393  0.60738525     0.30400
F775        F  0.45309924  0.58746226  0.58738653    -0.19000
H776        H  0.39324855  0.64471361  0.59093423     0.18800
H777        H  0.40206601  0.54518919  0.65998245     0.18800
F778        F  0.33980325  0.60071291  0.66247670    -0.19000
C779        C  0.10706567  0.88038314  0.60547571    -0.20400
C780        C  0.13447436  0.87212564  0.62529263    -0.08500
C781        C  0.13012619  0.89764351  0.64638450     0.30400
C782        C  0.09794479  0.92947341  0.64789184    -0.20400
C783        C  0.06826901  0.93554514  0.62910893    -0.08500
C784        C  0.07491653  0.91223545  0.60705560     0.30400
F785        F  0.05075131  0.92057094  0.58676039    -0.19000
H786        H  0.11075111  0.86242831  0.58853314     0.18800
H787        H  0.09752720  0.95010842  0.66345083     0.18800
F788        F  0.15676453  0.89192592  0.66568036    -0.19000
C789        C  0.38978620  0.83883333  0.60885328    -0.20400
C790        C  0.35286988  0.84878548  0.62152601    -0.08500
C791        C  0.34415318  0.88677100  0.63354567     0.30400
C792        C  0.37179300  0.91423070  0.63253638    -0.20400
C793        C  0.40839929  0.90444362  0.61956780    -0.08500
C794        C  0.41738646  0.86633223  0.60788615     0.30400
F795        F  0.45225286  0.85613859  0.59485271    -0.19000
H796        H  0.39729491  0.80979058  0.59953217     0.18800
H797        H  0.36461892  0.94313822  0.64202359     0.18800
F798        F  0.30872213  0.89787122  0.64589263    -0.19000
C799        C  0.15063745  0.61811283  0.63443460    -0.20400
C800        C  0.14722231  0.65043745  0.61730525    -0.08500
C801        C  0.11656477  0.65375011  0.59899731     0.30400
C802        C  0.08988831  0.62529304  0.59813564    -0.20400
C803        C  0.09374454  0.59306101  0.61512608    -0.08500
C804        C  0.12411618  0.58961860  0.63338502     0.30400
F805        F  0.12720266  0.55955884  0.65069037    -0.19000
H806        H  0.17368068  0.61495686  0.64885459     0.18800
H807        H  0.06634678  0.62800686  0.58403066     0.18800
F808        F  0.11247997  0.68402373  0.58180051    -0.19000
Zn809      Zn  0.75115055  0.20221698  0.64311386     1.49700
Zn810      Zn  0.79750024  0.24356483  0.60084492     1.49400
Zn811      Zn  0.70203553  0.25729326  0.60020499     1.49100
Zn812      Zn  0.74740050  0.29657060  0.64365241     1.49500
O813        O  0.74952193  0.24980919  0.62185440    -1.83200
O814        O  0.80240451  0.16347142  0.63849888    -0.73900
O815        O  0.78371987  0.24254684  0.56421874    -0.73700
O816        O  0.67085309  0.21140547  0.60527962    -0.73200
O817        O  0.83465820  0.19197960  0.60874302    -0.73900
O818        O  0.70559360  0.17300663  0.63419163    -0.73500
O819        O  0.71671537  0.25642466  0.56378356    -0.74100
O820        O  0.69689319  0.33557005  0.63879437    -0.73500
O821        O  0.82793468  0.29004692  0.60679816    -0.74200
O822        O  0.66521050  0.30936871  0.60774391    -0.73600
O823        O  0.79331944  0.32603453  0.63673174    -0.74100
O824        O  0.74908386  0.28192491  0.67972878    -0.74000
O825        O  0.74714448  0.21573323  0.67970544    -0.73800
C826        C  0.83270094  0.16320120  0.62413078     0.78000
C827        C  0.75036027  0.24885611  0.55229301     0.78500
C828        C  0.67604674  0.17993013  0.61902772     0.77500
C829        C  0.66707081  0.33708778  0.62392348     0.77800
C830        C  0.82285601  0.32031769  0.62161091     0.79000
C831        C  0.74767467  0.24895211  0.69139726     0.78000
C832        C  0.53215730  0.46933313  0.63099547     0.30900
C833        C  0.96944346  0.03199017  0.62949054     0.30900
C834        C  0.99292973  0.45957475  0.61916690    -0.05300
C835        C  0.51720271  0.48647796  0.65666675    -0.06100
C836        C  0.54036985  0.00732071  0.61650565    -0.06000
C837        C  0.96074555  0.49165423  0.61823238    -0.05300
C838        C  0.98585324  0.01946851  0.65570534    -0.06100
C839        C  0.50809893  0.03963551  0.61601978    -0.06000
C840        C  0.92572307  0.47445361  0.61778809    -0.31400
N841        N  0.93557168  0.43349011  0.61802618     0.15100
C842        C  0.97627864  0.42424009  0.61972339    -0.31400
H843        H  0.99240925  0.39431414  0.62386732     0.17100
C844        C  0.97734146  0.03150725  0.67996538    -0.30300
N845        N  0.50197533  0.00663389  0.69538122     0.13900
C846        C  0.52537838  0.47802354  0.68148929    -0.30300
C847        C  0.52534707  0.07475265  0.61497605    -0.30600
N848        N  0.56592648  0.06488025  0.61374918     0.14400
H849        H  0.50984487  0.10536862  0.61800280     0.17000
C850        C  0.57556242  0.02414939  0.61533365    -0.30600
H851        H  0.60590548  0.00825335  0.61823489     0.17000
H852        H  0.54608483  0.45288828  0.68908072     0.17000
H853        H  0.89524015  0.49071646  0.61932795     0.17100
H854        H  0.95530654  0.05667175  0.68611327     0.17000
Zn855      Zn  0.95295360  0.01603394  0.84992896     1.49700
Zn856      Zn  0.54803588  0.00832108  0.85128178     1.49400
Zn857      Zn  0.49328686  0.05858239  0.89430400     1.49100
Zn858      Zn  0.50400520  0.46311516  0.89335771     1.49500
O859        O  0.49968310  0.01134596  0.87219174    -1.83200
O860        O  0.96881296  0.01262247  0.81400585    -0.73900
O861        O  0.57898854  0.05318206  0.86105998    -0.73700
O862        O  0.94272505  0.09735374  0.88669864    -0.73200
O863        O  0.53516857  0.01262638  0.81433974    -0.73900
O864        O  0.91641836  0.06936069  0.85400231    -0.73500
O865        O  0.54008039  0.08825910  0.88961431    -0.74100
O866        O  0.50115113  0.47703824  0.93036581    -0.73500
O867        O  0.58388938  0.45486533  0.85565448    -0.74200
O868        O  0.49278948  0.04404496  0.93087032    -0.73600
O869        O  0.55605252  0.42520177  0.88705261    -0.74100
O870        O  0.95848844  0.43236169  0.88485940    -0.74000
O871        O  0.92102208  0.47120727  0.85697928    -0.73800
C872        C  0.50205601  0.01263879  0.80247312     0.78000
C873        C  0.57194738  0.08278807  0.87633436     0.78500
C874        C  0.91592495  0.09801949  0.86976135     0.77500
C875        C  0.49709271  0.01014990  0.94229052     0.77800
C876        C  0.58375866  0.42546676  0.87079727     0.79000
C877        C  0.92772147  0.43966654  0.87061368     0.78000
C878        C  0.77982926  0.22873967  0.86423178     0.30900
C879        C  0.71620005  0.29072755  0.86277022     0.30900
C880        C  0.78866254  0.26986115  0.87360742    -0.05300
C881        C  0.76100570  0.23874271  0.83820257    -0.06100
C882        C  0.74254745  0.22201672  0.87944945    -0.06000
C883        C  0.75637640  0.30163819  0.87262110    -0.05300
C884        C  0.72924793  0.27120237  0.83732081    -0.06100
C885        C  0.70973408  0.25387050  0.87868116    -0.06000
C886        C  0.77301427  0.33705166  0.87152411    -0.31400
N887        N  0.81393681  0.32791674  0.87305584     0.15100
C888        C  0.82371564  0.28691338  0.87375293    -0.31400
H889        H  0.85415438  0.27039725  0.87262968     0.17100
C890        C  0.72095557  0.27885931  0.81242012    -0.30300
N891        N  0.74428552  0.25047439  0.79847755     0.13900
C892        C  0.76850613  0.22550997  0.81401960    -0.30300
C893        C  0.67512612  0.23599142  0.88076432    -0.30600
N894        N  0.68557722  0.19530276  0.88312925     0.14400
H895        H  0.64462459  0.25090833  0.87719953     0.17000
C896        C  0.72632981  0.18659491  0.88205939    -0.30600
H897        H  0.74315378  0.15624407  0.88062602     0.17000
H898        H  0.79083490  0.20064898  0.80792489     0.17000
H899        H  0.75660018  0.36689440  0.86746582     0.17100
H900        H  0.70110300  0.30415533  0.80456404     0.17000
Zn901      Zn  0.95402055  0.99648527  0.14187530     1.49700
Zn902      Zn  0.00850665  0.45116193  0.09794455     1.49400
Zn903      Zn  0.99594708  0.04725639  0.10129342     1.49100
Zn904      Zn  0.54842251  0.99396958  0.14328222     1.49500
O905        O  0.00159592  0.99703684  0.12089458    -1.83200
O906        O  0.92339939  0.45263862  0.13043138    -0.73900
O907        O  0.00880747  0.47001841  0.06188529    -0.73700
O908        O  0.94645544  0.08621074  0.11235202    -0.73200
O909        O  0.96069501  0.41989833  0.10042607    -0.73900
O910        O  0.91699560  0.04943018  0.13947192    -0.73500
O911        O  0.99330881  0.03640296  0.06379477    -0.74100
O912        O  0.58005303  0.03958180  0.13693503    -0.73500
O913        O  0.56040149  0.41303352  0.10623560    -0.74200
O914        O  0.54475622  0.07496508  0.10705531    -0.73600
O915        O  0.58635383  0.44328086  0.13810413    -0.74100
O916        O  0.53316326  0.99406464  0.17964674    -0.74000
O917        O  0.96776577  0.98875532  0.17862285    -0.73800
C918        C  0.92896380  0.42474151  0.11397047     0.78000
C919        C  0.00079972  0.00369163  0.05104580     0.78500
C920        C  0.91791638  0.08233557  0.12757565     0.77500
C921        C  0.57532256  0.06903263  0.12158001     0.77800
C922        C  0.58772647  0.41376047  0.12289617     0.79000
C923        C  0.00030597  0.99030647  0.19083503     0.78000
C924        C  0.71979798  0.27772323  0.13361293     0.30900
C925        C  0.78577199  0.21756011  0.13421053     0.30900
C926        C  0.75859538  0.28865635  0.12223583    -0.05300
C927        C  0.73377167  0.26144388  0.15948005    -0.06100
C928        C  0.71434959  0.23829719  0.11988951    -0.06000
C929        C  0.79210038  0.25832636  0.12178211    -0.05300
C930        C  0.76743318  0.23119905  0.15973314    -0.06100
C931        C  0.74816495  0.20736684  0.11961341    -0.06000
C932        C  0.82304343  0.27606821  0.11111386    -0.31400
N933        N  0.81037057  0.31641791  0.10800331     0.15100
C934        C  0.77057428  0.32413601  0.11405132    -0.31400
H935        H  0.75257928  0.35403462  0.11444176     0.17100
C936        C  0.77519065  0.22045781  0.18426325    -0.30300
N937        N  0.74708539  0.24304678  0.19889468     0.13900
C938        C  0.72148037  0.26787832  0.18385481    -0.30300
C939        C  0.73266585  0.17122930  0.11594595    -0.30600
N940        N  0.69173537  0.17908469  0.11516735     0.14400
H941        H  0.74932307  0.14092722  0.11533438     0.17000
C942        C  0.68045757  0.21930178  0.11839707    -0.30600
H943        H  0.64963229  0.23314438  0.12242534     0.17000
H944        H  0.69566126  0.28891418  0.19022667     0.17000
H945        H  0.85343179  0.26185457  0.10682304     0.17100
H946        H  0.80008230  0.19846190  0.19094730     0.17000
C947        C  0.96580696  0.02737573  0.36178119     0.30900
C948        C  0.52847597  0.46286169  0.36427893     0.30900
C949        C  0.95684447  0.48868749  0.37588326    -0.05300
C950        C  0.98297506  0.01007912  0.33691279    -0.06100
C951        C  0.50429809  0.03594340  0.37594945    -0.06000
C952        C  0.98831350  0.45585283  0.37693768    -0.05300
C953        C  0.51440894  0.47752787  0.33818044    -0.06100
C954        C  0.53593916  0.00333399  0.37739401    -0.06000
C955        C  0.97199263  0.42372715  0.38733666    -0.31400
N956        N  0.93170044  0.43517765  0.39105066     0.15100
C957        C  0.92303827  0.47541412  0.38593373    -0.31400
H958        H  0.89320603  0.49271668  0.38810563     0.17100
C959        C  0.52483487  0.46654125  0.31399332    -0.30300
N960        N  0.00075112  0.99149906  0.29822394     0.13900
C961        C  0.97461145  0.01767801  0.31209489    -0.30300
C962        C  0.56862111  0.01831434  0.38777325    -0.30600
N963        N  0.55932457  0.05913272  0.39060305     0.14400
H964        H  0.59833195  0.00161183  0.39148082     0.17000
C965        C  0.51946992  0.06972347  0.38506839    -0.30600
H966        H  0.50410380  0.10054461  0.38586800     0.17000
H967        H  0.95127257  0.04063866  0.30464212     0.17000
H968        H  0.98717812  0.39316430  0.39049234     0.17100
H969        H  0.54810085  0.44209661  0.30825114     0.17000
Zn970      Zn  0.69996838  0.25328575  0.39643766     1.49700
Zn971      Zn  0.79699028  0.23621662  0.39584158     1.49400
Zn972      Zn  0.74547346  0.19725782  0.35438316     1.49100
Zn973      Zn  0.74911346  0.29285035  0.35435218     1.49500
O974        O  0.74795765  0.24494922  0.37521735    -1.83200
O975        O  0.71641536  0.25604492  0.43236692    -0.73900
O976        O  0.83544760  0.18686588  0.38362017    -0.73700
O977        O  0.69932983  0.16753155  0.36470602    -0.73200
O978        O  0.78212970  0.23145704  0.43232507    -0.73900
O979        O  0.66776617  0.20672065  0.39425080    -0.73500
O980        O  0.79731226  0.15827814  0.35673085    -0.74100
O981        O  0.75214174  0.27705327  0.31777960    -0.73500
O982        O  0.82712508  0.28454202  0.39431956    -0.74200
O983        O  0.74070864  0.21279067  0.31801897    -0.73600
O984        O  0.79529639  0.32279190  0.36441311    -0.74100
O985        O  0.69759467  0.33246508  0.35819681    -0.74000
O986        O  0.66227327  0.30388905  0.38655331    -0.73800
C987        C  0.74926880  0.24380428  0.44402862     0.78000
C988        C  0.83067163  0.15870329  0.36818535     0.78500
C989        C  0.67117300  0.17478289  0.38088770     0.77500
C990        C  0.74614673  0.24484511  0.30625640     0.77800
C991        C  0.82304378  0.31650923  0.38096832     0.79000
C992        C  0.66568220  0.33232644  0.37115807     0.78000
C993        C  0.65050326  0.10686016  0.37291848    -0.20400
C994        C  0.64235346  0.14513018  0.38437254    -0.08500
C995        C  0.60680255  0.15419960  0.39885521     0.30400
C996        C  0.58026939  0.12540801  0.40158887    -0.20400
C997        C  0.58862998  0.08709369  0.39009342    -0.08500
C998        C  0.62406338  0.07835900  0.37551949     0.30400
F999        F  0.63223095  0.04316563  0.36244154    -0.19000
H1000       H  0.67727193  0.09898225  0.36151603     0.18800
H1001       H  0.55284297  0.13319141  0.41241569     0.18800
F1002       F  0.59703491  0.19112358  0.40987115    -0.19000
C1003       C  0.60434823  0.43625283  0.36119233    -0.20400
C1004       C  0.56427848  0.42791984  0.36366928    -0.08500
C1005       C  0.55888392  0.38663070  0.36265086     0.30400
C1006       C  0.59182813  0.35588935  0.36621006    -0.20400
C1007       C  0.63134829  0.36526981  0.36778383    -0.08500
C1008       C  0.63757749  0.40561158  0.36395217     0.30400
F1009       F  0.67561931  0.41553359  0.36320757    -0.19000
H1010       H  0.61025804  0.46648945  0.35666287     0.18800
H1011       H  0.58669471  0.32440742  0.36639115     0.18800
F1012       F  0.52324841  0.37556584  0.35524501    -0.19000
C1013       C  0.90411368  0.13471228  0.36031041    -0.20400
C1014       C  0.86456399  0.12582478  0.36321971    -0.08500
C1015       C  0.85754925  0.08565163  0.35940191     0.30400
C1016       C  0.89026277  0.05451893  0.35649865    -0.20400
C1017       C  0.93045407  0.06237688  0.35876946    -0.08500
C1018       C  0.93645980  0.10332543  0.35648745     0.30400
F1019       F  0.97221873  0.11306874  0.34827422    -0.19000
H1020       H  0.90967722  0.16600552  0.36005219     0.18800
H1021       H  0.88390533  0.02431720  0.35233027     0.18400
F1022       F  0.81928303  0.07627521  0.35912172    -0.19000
C1023       C  0.84296541  0.38449425  0.37202653    -0.20400
C1024       C  0.85047866  0.34744044  0.38492194    -0.08500
C1025       C  0.88394386  0.34090803  0.40137057     0.30400
C1026       C  0.90955268  0.37054790  0.40420018    -0.20400
C1027       C  0.90228145  0.40730327  0.39090947    -0.08500
C1028       C  0.86840698  0.41392259  0.37481075     0.30400
F1029       F  0.86104221  0.44771779  0.36039606    -0.19000
H1030       H  0.81761810  0.39060320  0.35926212     0.18800
H1031       H  0.93558328  0.36451359  0.41642268     0.18800
F1032       F  0.89262562  0.30562408  0.41430907    -0.19000
C1033       C  0.75615234  0.20760607  0.26560025    -0.20400
C1034       C  0.74570885  0.24441522  0.27860572    -0.08500
C1035       C  0.73487405  0.28046759  0.26491345     0.30400
C1036       C  0.73490987  0.27959720  0.23884182    -0.20400
C1037       C  0.74606213  0.24296760  0.22580054    -0.08500
C1038       C  0.75656366  0.20679872  0.23948773     0.30400
F1039       F  0.76633495  0.17054793  0.22770212    -0.19000
H1040       H  0.76446833  0.17936383  0.27568610     0.18800
H1041       H  0.72684140  0.30785729  0.22877844     0.18800
F1042       F  0.72352334  0.31651474  0.27667719    -0.19000
C1043       C  0.53698878  0.98551523  0.23194552    -0.20400
C1044       C  0.00016258  0.98851326  0.21858397    -0.08500
C1045       C  0.96373835  0.49107337  0.23213193     0.30400
C1046       C  0.96410032  0.49159645  0.25822791    -0.20400
C1047       C  0.00095929  0.98930529  0.27140942    -0.08500
C1048       C  0.53746256  0.98568906  0.25805647     0.30400
F1049       F  0.57344790  0.98404058  0.27014449    -0.19000
H1050       H  0.56555579  0.98340101  0.22213824     0.18800
H1051       H  0.93566797  0.49411008  0.26820032     0.18800
F1052       F  0.92746558  0.49402794  0.22024619    -0.19000
C1053       C  0.59969553  0.13022913  0.10389865    -0.20400
C1054       C  0.60610301  0.09674785  0.12013844    -0.08500
C1055       C  0.64227301  0.08998031  0.13422625     0.30400
C1056       C  0.67107774  0.11634567  0.13193027    -0.20400
C1057       C  0.66417170  0.14988528  0.11583792    -0.08500
C1058       C  0.62831637  0.15654569  0.10180002     0.30400
F1059       F  0.62117996  0.18853083  0.08590195    -0.19000
H1060       H  0.57232948  0.13625980  0.09273168     0.18800
H1061       H  0.69836636  0.11126203  0.14324315     0.18800
F1062       F  0.64985620  0.05817779  0.15026177    -0.19000
C1063       C  0.65632348  0.31373289  0.11182136    -0.20400
C1064       C  0.68443098  0.31263496  0.13163082    -0.08500
C1065       C  0.68234832  0.34725327  0.14702271     0.30400
C1066       C  0.65101124  0.37990158  0.14403775    -0.20400
C1067       C  0.62153728  0.37947373  0.12521048    -0.08500
C1068       C  0.62493413  0.34608312  0.10891863     0.30400
F1069       F  0.59840005  0.34470673  0.08982090    -0.19000
H1070       H  0.65897532  0.29021325  0.09781766     0.18800
H1071       H  0.65008943  0.40569253  0.15643125     0.18800
F1072       F  0.71138636  0.35037981  0.16437300    -0.19000
C1073       C  0.81544258  0.14341899  0.14205121    -0.20400
C1074       C  0.82204986  0.18321865  0.13626690    -0.08500
C1075       C  0.86287097  0.18960796  0.13443021     0.30400
C1076       C  0.89366464  0.15680543  0.13055990    -0.20400
C1077       C  0.88524838  0.11680301  0.13179510    -0.08500
C1078       C  0.84626442  0.11038189  0.13918117     0.30400
F1079       F  0.83759835  0.07228431  0.14319771    -0.19000
H1080       H  0.78641095  0.13768561  0.14879932     0.18800
H1081       H  0.92449039  0.16257242  0.12811041     0.18800
F1082       F  0.87418018  0.22573490  0.14069305    -0.19000
C1083       C  0.86448655  0.40198355  0.12739550    -0.20400
C1084       C  0.89749680  0.39782555  0.11085245    -0.08500
C1085       C  0.89962329  0.36798147  0.09196114     0.30400
C1086       C  0.86992760  0.34227652  0.09038082    -0.20400
C1087       C  0.83747332  0.34623874  0.10727717    -0.08500
C1088       C  0.83495298  0.37656376  0.12573506     0.30400
F1089       F  0.80538545  0.37995025  0.14329912    -0.19000
H1090       H  0.86188131  0.42439361  0.14220196     0.18800
H1091       H  0.87254933  0.31874603  0.07626056     0.18800
F1092       F  0.93047478  0.36317136  0.07524251    -0.19000
C1093       C  0.49595244  0.47290002  0.98292003    -0.20400
C1094       C  0.49739590  0.00929789  0.97013086    -0.08500
C1095       C  0.99549079  0.04502492  0.98450239     0.30400
C1096       C  0.99650508  0.04306719  0.01066569    -0.20400
C1097       C  0.99965978  0.00550660  0.02317755    -0.08500
C1098       C  0.49683394  0.47108060  0.00899734     0.30400
F1099       F  0.49573122  0.43457618  0.02006349    -0.19000
H1100       H  0.49489188  0.44506251  0.97258800     0.18800
H1101       H  0.99512220  0.07111092  0.02114585     0.18800
F1102       F  0.99308673  0.08202094  0.97343487    -0.19000
C1103       C  0.62106162  0.17403318  0.89489663    -0.20400
C1104       C  0.65785553  0.16631262  0.88199293    -0.08500
C1105       C  0.66642417  0.13081235  0.86745589     0.30400
C1106       C  0.63848728  0.10369511  0.86596298    -0.20400
C1107       C  0.60145274  0.11147624  0.87872797    -0.08500
C1108       C  0.59304394  0.14692576  0.89342200     0.30400
F1109       F  0.55768771  0.15584928  0.90615308    -0.19000
H1110       H  0.61410690  0.20121483  0.90616470     0.18800
H1111       H  0.64576032  0.07677820  0.85450071     0.18800
F1112       F  0.70085512  0.12303702  0.85375216    -0.19000
C1113       C  0.84540472  0.18961388  0.84681624    -0.20400
C1114       C  0.81656185  0.19546047  0.86615181    -0.08500
C1115       C  0.82485793  0.17244201  0.88821866     0.30400
C1116       C  0.85753678  0.14100551  0.88925831    -0.20400
C1117       C  0.88307438  0.13244595  0.86870090    -0.08500
C1118       C  0.87748941  0.15747994  0.84761331     0.30400
F1119       F  0.90375996  0.15163937  0.82817839    -0.19000
H1120       H  0.84369551  0.21020970  0.83115848     0.18800
H1121       H  0.86268508  0.12295649  0.90610083     0.18800
F1122       F  0.80218777  0.18072085  0.90908727    -0.19000
C1123       C  0.64162172  0.37942992  0.88941101    -0.20400
C1124       C  0.61614200  0.39055466  0.86904668    -0.08500
C1125       C  0.62118051  0.36753064  0.84710407     0.30400
C1126       C  0.65203709  0.33431786  0.84537226    -0.20400
C1127       C  0.68050272  0.32528181  0.86474986    -0.08500
C1128       C  0.67353608  0.34718095  0.88734267     0.30400
F1129       F  0.69746999  0.33724296  0.90756438    -0.19000
H1130       H  0.63724962  0.39617882  0.90674445     0.18800
H1131       H  0.65179138  0.31515133  0.82949337     0.18800
F1132       F  0.59519873  0.37616884  0.82766118    -0.19000
C1133       C  0.86047213  0.42285122  0.88118153    -0.20400
C1134       C  0.89847863  0.41127430  0.87032708    -0.08500
C1135       C  0.90839873  0.37252766  0.85979767     0.30400
C1136       C  0.88024093  0.34541666  0.86028680    -0.20400
C1137       C  0.84219597  0.35650160  0.87166135    -0.08500
C1138       C  0.83260148  0.39556890  0.88215735     0.30400
F1139       F  0.79705882  0.40684740  0.89428930    -0.19000
H1140       H  0.85285475  0.45269250  0.88952520     0.18800
H1141       H  0.88816411  0.31587533  0.85168273     0.18800
F1142       F  0.94500875  0.36120418  0.84883081    -0.19000
C1143       C  0.96552799  0.01604187  0.73521341    -0.20400
C1144       C  0.50219251  0.00884910  0.72213847    -0.08500
C1145       C  0.53834200  0.50246345  0.73568734     0.30400
C1146       C  0.53817265  0.50459046  0.76172804    -0.20400
C1147       C  0.50196263  0.01215998  0.77479286    -0.08500
C1148       C  0.96520391  0.01750647  0.76123192     0.30400
F1149       F  0.92882514  0.02422493  0.77300644    -0.19000
H1150       H  0.93695600  0.01987273  0.72519553     0.18800
H1151       H  0.56691522  0.50027313  0.77155233     0.18800
F1152       F  0.57437903  0.49620261  0.72352294    -0.19000
C1153       C  0.71424173  0.25894293  0.51133854    -0.20400
C1154       C  0.75044506  0.24716913  0.52460204    -0.08500
C1155       C  0.78611469  0.23354579  0.51109745     0.30400
C1156       C  0.78537961  0.23219447  0.48502501    -0.20400
C1157       C  0.74924668  0.24438696  0.47175209    -0.08500
C1158       C  0.71350021  0.25768319  0.48529975     0.30400
F1159       F  0.67766928  0.26972268  0.47353250    -0.19000
H1160       H  0.68625323  0.26946269  0.52112601     0.18800
H1161       H  0.81335216  0.22169644  0.47522098     0.18800
F1162       F  0.82177637  0.22120950  0.52296960    -0.19000
C1163       C  0.75202694  0.21260450  0.73239101    -0.20400
C1164       C  0.74669929  0.24936448  0.71899757    -0.08500
C1165       C  0.74051262  0.28633929  0.73229056     0.30400
C1166       C  0.74002711  0.28630606  0.75827159    -0.20400
C1167       C  0.74542110  0.24964605  0.77166017    -0.08500
C1168       C  0.75141604  0.21265105  0.75846496     0.30400
F1169       F  0.75551514  0.17655773  0.77067824    -0.19000
H1170       H  0.75667369  0.18372465  0.72270180     0.18800
H1171       H  0.73582266  0.31516804  0.76795864     0.18800
F1172       F  0.73450283  0.32270087  0.72031874    -0.19000
C1173       C  0.89568153  0.12429108  0.60633783    -0.20400
C1174       C  0.86630952  0.12882838  0.62520894    -0.08500
C1175       C  0.86908300  0.09972824  0.64443639     0.30400
C1176       C  0.90183773  0.06829717  0.64531209    -0.20400
C1177       C  0.93319461  0.06572476  0.62760394    -0.08500
C1178       C  0.92800756  0.09255114  0.60704318     0.30400
F1179       F  0.95297305  0.08745585  0.58698104    -0.19000
H1180       H  0.89325372  0.14491864  0.59060346     0.18800
H1181       H  0.90237286  0.04571435  0.65985037     0.18800
F1182       F  0.84038262  0.10153580  0.66249239    -0.19000
C1183       C  0.60627424  0.37954126  0.60587137    -0.20400
C1184       C  0.63386238  0.37159366  0.62561475    -0.08500
C1185       C  0.62965809  0.39733886  0.64660472     0.30400
C1186       C  0.59753021  0.42921883  0.64804097    -0.20400
C1187       C  0.56775280  0.43506558  0.62931207    -0.08500
C1188       C  0.57416771  0.41141110  0.60738421     0.30400
F1189       F  0.54986306  0.41943199  0.58712388    -0.19000
H1190       H  0.60981434  0.36136788  0.58901475     0.18800
H1191       H  0.59716990  0.45002865  0.66350663     0.18800
F1192       F  0.65640519  0.39183163  0.66585204    -0.19000
C1193       C  0.88872624  0.33951473  0.60845491    -0.20400
C1194       C  0.85194121  0.34943562  0.62126495    -0.08500
C1195       C  0.84344164  0.38725757  0.63349712     0.30400
C1196       C  0.87121839  0.41457766  0.63258082    -0.20400
C1197       C  0.90770722  0.40478060  0.61949580    -0.08500
C1198       C  0.91645105  0.36685653  0.60759090     0.30400
F1199       F  0.95122207  0.35670374  0.59445818    -0.19000
H1200       H  0.89607346  0.31058753  0.59898071     0.18800
H1201       H  0.86426187  0.44337165  0.64222724     0.18800
F1202       F  0.80813867  0.39829952  0.64599097    -0.19000
C1203       C  0.64943489  0.11919442  0.63520697    -0.20400
C1204       C  0.64735646  0.15049630  0.61743898    -0.08500
C1205       C  0.61800260  0.15288848  0.59835983     0.30400
C1206       C  0.59118825  0.12459394  0.59739427    -0.20400
C1207       C  0.59371768  0.09338366  0.61502079    -0.08500
C1208       C  0.62282569  0.09078923  0.63402206     0.30400
F1209       F  0.62461136  0.06158918  0.65182362    -0.19000
H1210       H  0.67148317  0.11679411  0.65019750     0.18800
H1211       H  0.56865170  0.12656205  0.58269763     0.18800
F1212       F  0.61546452  0.18199366  0.58045256    -0.19000
Zn1213     Zn  0.75111885  0.70212146  0.64310942     1.49700
Zn1214     Zn  0.79792327  0.74328179  0.60093301     1.49400
Zn1215     Zn  0.70226466  0.75728789  0.60019564     1.49100
Zn1216     Zn  0.74779926  0.79650680  0.64356299     1.49500
O1217       O  0.74977555  0.74970235  0.62183908    -1.83200
O1218       O  0.80226358  0.66317913  0.63867693    -0.73900
O1219       O  0.78429250  0.74263458  0.56425719    -0.73700
O1220       O  0.67077930  0.71146082  0.60520518    -0.73200
O1221       O  0.83459669  0.69146913  0.60886376    -0.73900
O1222       O  0.70558806  0.67302076  0.63405879    -0.73500
O1223       O  0.71726877  0.75641752  0.56386657    -0.74100
O1224       O  0.69749081  0.83585373  0.63854101    -0.73500
O1225       O  0.82887618  0.78941171  0.60702188    -0.74200
O1226       O  0.66563439  0.80965055  0.60756883    -0.73600
O1227       O  0.79408457  0.82561339  0.63679048    -0.74100
O1228       O  0.74910013  0.78182761  0.67961889    -0.74000
O1229       O  0.74683260  0.71568719  0.67967592    -0.73800
C1230       C  0.83254610  0.66276254  0.62428662     0.78000
C1231       C  0.75090763  0.74904794  0.55235542     0.78500
C1232       C  0.67599533  0.67994763  0.61893322     0.77500
C1233       C  0.66765597  0.83746821  0.62366409     0.77800
C1234       C  0.82379159  0.81973188  0.62179650     0.79000
C1235       C  0.74744367  0.74893396  0.69132188     0.78000
C1236       C  0.53254542  0.96965374  0.63086217     0.30900
C1237       C  0.96921978  0.53166977  0.62968961     0.30900
C1238       C  0.99332540  0.95981544  0.61919078    -0.05300
C1239       C  0.51765923  0.98705585  0.65650359    -0.06100
C1240       C  0.54020216  0.50709632  0.61680391    -0.06000
C1241       C  0.96104697  0.99177936  0.61823562    -0.05300
C1242       C  0.98540090  0.51882707  0.65589081    -0.06100
C1243       C  0.50804239  0.53949346  0.61639443    -0.06000
C1244       C  0.92611334  0.97441495  0.61774506    -0.31400
N1245       N  0.93612033  0.93344022  0.61794875     0.15100
C1246       C  0.97685518  0.92437070  0.61967275    -0.31400
H1247       H  0.99312121  0.89449887  0.62378181     0.17100
C1248       C  0.97673049  0.53059971  0.68016871    -0.30300
N1249       N  0.50139436  0.50565512  0.69557881     0.13900
C1250       C  0.52597988  0.97892991  0.68135348    -0.30300
C1251       C  0.52538418  0.57454463  0.61539297    -0.30600
N1252       N  0.56595968  0.56458635  0.61409574     0.14400
H1253       H  0.50993856  0.60518265  0.61843146     0.17000
C1254       C  0.57547004  0.52380970  0.61560545    -0.30600
H1255       H  0.60579196  0.50775596  0.61832703     0.17000
H1256       H  0.54672418  0.95391122  0.68903183     0.17000
H1257       H  0.89557935  0.99058268  0.61925713     0.17100
H1258       H  0.95475198  0.55578208  0.68635072     0.17000
Zn1259     Zn  0.95277257  0.51625647  0.85016028     1.49700
Zn1260     Zn  0.54780395  0.50845197  0.85128765     1.49400
Zn1261     Zn  0.49336961  0.55876535  0.89440703     1.49100
Zn1262     Zn  0.50401368  0.96290585  0.89320202     1.49500
O1263       O  0.49958811  0.51152221  0.87232170    -1.83200
O1264       O  0.96838125  0.51263399  0.81419876    -0.73900
O1265       O  0.57888375  0.55325355  0.86093148    -0.73700
O1266       O  0.94290626  0.59770598  0.88681249    -0.73200
O1267       O  0.53470844  0.51269842  0.81441243    -0.73900
O1268       O  0.91644991  0.56963343  0.85420171    -0.73500
O1269       O  0.54031391  0.58816988  0.88970164    -0.74100
O1270       O  0.50158582  0.97676188  0.93016013    -0.73500
O1271       O  0.58410829  0.95473327  0.85574425    -0.74200
O1272       O  0.49261011  0.54432730  0.93096700    -0.73600
O1273       O  0.55589076  0.92489319  0.88691389    -0.74100
O1274       O  0.95837142  0.93221056  0.88475934    -0.74000
O1275       O  0.92135919  0.97081451  0.85656885    -0.73800
C1276       C  0.50156258  0.51257566  0.80261208     0.78000
C1277       C  0.57203621  0.58275011  0.87629319     0.78500
C1278       C  0.91606231  0.59834466  0.86990720     0.77500
C1279       C  0.49660670  0.51049173  0.94244131     0.77800
C1280       C  0.58376747  0.92524337  0.87079408     0.79000
C1281       C  0.92784716  0.93939504  0.87031614     0.78000
C1282       C  0.77989608  0.72880331  0.86408219     0.30900
C1283       C  0.71629791  0.79075917  0.86276871     0.30900
C1284       C  0.78875363  0.76981343  0.87361172    -0.05300
C1285       C  0.76114723  0.73905069  0.83806373    -0.06100
C1286       C  0.74260617  0.72194451  0.87922892    -0.06000
C1287       C  0.75644152  0.80161998  0.87268743    -0.05300
C1288       C  0.72938974  0.77150797  0.83726306    -0.06100
C1289       C  0.70980967  0.75379023  0.87854727    -0.06000
C1290       C  0.77310040  0.83697837  0.87123761    -0.31400
N1291       N  0.81401887  0.82783756  0.87252156     0.15100
C1292       C  0.82380713  0.78686695  0.87334085    -0.31400
H1293       H  0.85421841  0.77036077  0.87201956     0.17100
C1294       C  0.72101715  0.77932427  0.81239032    -0.30300
N1295       N  0.74430432  0.75100657  0.79838123     0.13900
C1296       C  0.76857137  0.72595944  0.81385560    -0.30300
C1297       C  0.67520801  0.73590871  0.88060307    -0.30600
N1298       N  0.68567554  0.69521147  0.88288667     0.14400
H1299       H  0.64468828  0.75084782  0.87710288     0.17000
C1300       C  0.72642469  0.68649940  0.88177377    -0.30600
H1301       H  0.74325427  0.65615842  0.88028475     0.17000
H1302       H  0.79077726  0.70105924  0.80769681     0.17000
H1303       H  0.75665394  0.86679150  0.86710963     0.17100
H1304       H  0.70096813  0.80463563  0.80461594     0.17000
Zn1305     Zn  0.95436129  0.49631635  0.14192558     1.49700
Zn1306     Zn  0.00810162  0.95064900  0.09788581     1.49400
Zn1307     Zn  0.99604226  0.54782754  0.10148756     1.49100
Zn1308     Zn  0.54848172  0.49477419  0.14344024     1.49500
O1309       O  0.00186934  0.49749313  0.12098729    -1.83200
O1310       O  0.92279798  0.95306740  0.13039862    -0.73900
O1311       O  0.00905084  0.96927630  0.06183676    -0.73700
O1312       O  0.94667749  0.58653894  0.11300826    -0.73200
O1313       O  0.95988152  0.92014188  0.10034647    -0.73900
O1314       O  0.91711638  0.54915515  0.13974533    -0.73500
O1315       O  0.99265670  0.53713246  0.06398765    -0.74100
O1316       O  0.58033216  0.54021112  0.13685686    -0.73500
O1317       O  0.55970682  0.91200236  0.10616336    -0.74200
O1318       O  0.54511948  0.57529373  0.10683982    -0.73600
O1319       O  0.58618292  0.94243890  0.13774211    -0.74100
O1320       O  0.53305997  0.49498043  0.17978899    -0.74000
O1321       O  0.96826299  0.48832878  0.17860912    -0.73800
C1322       C  0.92815755  0.92523200  0.11389189     0.78000
C1323       C  0.00008619  0.50447188  0.05118136     0.78500
C1324       C  0.91809669  0.58232524  0.12814148     0.77500
C1325       C  0.57581292  0.56934523  0.12127296     0.77800
C1326       C  0.58725807  0.91277322  0.12266327     0.79000
C1327       C  0.00059704  0.49050448  0.19090046     0.78000
C1328       C  0.71952262  0.77693337  0.13348712     0.30900
C1329       C  0.78590985  0.71728890  0.13478288     0.30900
C1330       C  0.75862380  0.78838341  0.12288848    -0.05300
C1331       C  0.73250795  0.76041200  0.15946783    -0.06100
C1332       C  0.71505493  0.73762843  0.11930903    -0.06000
C1333       C  0.79237906  0.75833931  0.12278753    -0.05300
C1334       C  0.76633284  0.73037029  0.16007958    -0.06100
C1335       C  0.74913193  0.70695495  0.11942620    -0.06000
C1336       C  0.82325404  0.77629306  0.11220847    -0.31400
N1337       N  0.81017579  0.81648919  0.10874910     0.15100
C1338       C  0.77028050  0.82389393  0.11452672    -0.31400
H1339       H  0.75186491  0.85357195  0.11437134     0.17100
C1340       C  0.77318097  0.71945604  0.18467180    -0.30300
N1341       N  0.74447489  0.74187601  0.19897684     0.13900
C1342       C  0.71936792  0.76675106  0.18370082    -0.30300
C1343       C  0.73418371  0.67062748  0.11534150    -0.30600
N1344       N  0.69329163  0.67810478  0.11388677     0.14400
H1345       H  0.75110738  0.64043448  0.11506877     0.17000
C1346       C  0.68150875  0.71823949  0.11713791    -0.30600
H1347       H  0.65045463  0.73166661  0.12087944     0.17000
H1348       H  0.69341801  0.78789704  0.18984099     0.17000
H1349       H  0.85374068  0.76227975  0.10797393     0.17100
H1350       H  0.79788100  0.69756595  0.19166352     0.17000
C1351       C  0.96607984  0.52712533  0.36194786     0.30900
C1352       C  0.52865387  0.96337682  0.36437379     0.30900
C1353       C  0.95664547  0.98881274  0.37560924    -0.05300
C1354       C  0.98286970  0.50964065  0.33700521    -0.06100
C1355       C  0.50474527  0.53554078  0.37585878    -0.06000
C1356       C  0.98831850  0.95618432  0.37679161    -0.05300
C1357       C  0.51485909  0.97805560  0.33821710    -0.06100
C1358       C  0.53617774  0.50274161  0.37718814    -0.06000
C1359       C  0.97211507  0.92381541  0.38698922    -0.31400
N1360       N  0.93172456  0.93493767  0.39043284     0.15100
C1361       C  0.92278655  0.97514767  0.38532110    -0.31400
H1362       H  0.89271333  0.99206626  0.38718029     0.17100
C1363       C  0.52556581  0.96720352  0.31403710    -0.30300
N1364       N  0.00036940  0.49089393  0.29827981     0.13900
C1365       C  0.97440083  0.51721686  0.31218113    -0.30300
C1366       C  0.56901060  0.51730296  0.38766102    -0.30600
N1367       N  0.55998118  0.55809435  0.39071336     0.14400
H1368       H  0.59858064  0.50029999  0.39135083     0.17000
C1369       C  0.52016518  0.56903669  0.38517576    -0.30600
H1370       H  0.50494408  0.59990839  0.38620269     0.17000
H1371       H  0.95118708  0.54032749  0.30474356     0.17000
H1372       H  0.98744546  0.89329881  0.39010985     0.17100
H1373       H  0.54897226  0.94286494  0.30832985     0.17000
Zn1374     Zn  0.69958222  0.75316762  0.39652933     1.49700
Zn1375     Zn  0.79670055  0.73641585  0.39592274     1.49400
Zn1376     Zn  0.74549682  0.69673684  0.35472056     1.49100
Zn1377     Zn  0.74869129  0.79242711  0.35421357     1.49500
O1378       O  0.74765119  0.74475672  0.37531097    -1.83200
O1379       O  0.71603882  0.75647641  0.43248111    -0.73900
O1380       O  0.83548079  0.68699639  0.38405937    -0.73700
O1381       O  0.69992357  0.66663916  0.36547984    -0.73200
O1382       O  0.78182874  0.73217493  0.43237164    -0.73900
O1383       O  0.66770905  0.70625770  0.39460917    -0.73500
O1384       O  0.79770786  0.65821771  0.35705855    -0.74100
O1385       O  0.75075144  0.77624102  0.31768025    -0.73500
O1386       O  0.82669130  0.78474559  0.39411918    -0.74200
O1387       O  0.73971668  0.71187689  0.31829668    -0.73600
O1388       O  0.79528483  0.82229000  0.36377699    -0.74100
O1389       O  0.69736842  0.83230155  0.35825923    -0.74000
O1390       O  0.66173764  0.80364670  0.38641946    -0.73800
C1391       C  0.74900262  0.74449353  0.44410393     0.78000
C1392       C  0.83094941  0.65874892  0.36863486     0.78500
C1393       C  0.67160875  0.67396500  0.38154759     0.77500
C1394       C  0.74456301  0.74392959  0.30633503     0.77800
C1395       C  0.82290491  0.81632133  0.38043592     0.79000
C1396       C  0.66534723  0.83217583  0.37112098     0.78000
C1397       C  0.65157397  0.60569773  0.37381441    -0.20400
C1398       C  0.64311398  0.64403345  0.38516948    -0.08500
C1399       C  0.60745704  0.65297552  0.39955757     0.30400
C1400       C  0.58097503  0.62411951  0.40214764    -0.20400
C1401       C  0.58947590  0.58586060  0.39059759    -0.08500
C1402       C  0.62518719  0.57711681  0.37627705     0.30400
F1403       F  0.63365015  0.54190325  0.36324518    -0.19000
H1404       H  0.67848036  0.59787700  0.36252745     0.18800
H1405       H  0.55341507  0.63186131  0.41284498     0.18800
F1406       F  0.59747824  0.68987183  0.41057050    -0.19000
C1407       C  0.60461382  0.93658926  0.36179864    -0.20400
C1408       C  0.56443772  0.92840495  0.36385007    -0.08500
C1409       C  0.55887963  0.88719225  0.36228918     0.30400
C1410       C  0.59162227  0.85620646  0.36579394    -0.20400
C1411       C  0.63118423  0.86533138  0.36778675    -0.08500
C1412       C  0.63767275  0.90570878  0.36443043     0.30400
F1413       F  0.67581169  0.91540870  0.36396410    -0.19000
H1414       H  0.61077070  0.96682681  0.35753086     0.18800
H1415       H  0.58632648  0.82477346  0.36559703     0.18800
F1416       F  0.52326887  0.87652406  0.35449437    -0.19000
C1417       C  0.90451627  0.63468035  0.36096266    -0.20400
C1418       C  0.86493332  0.62584472  0.36383350    -0.08500
C1419       C  0.85790077  0.58567007  0.36005625     0.30400
C1420       C  0.89056103  0.55452684  0.35699662    -0.20400
C1421       C  0.93079920  0.56229357  0.35912986    -0.08500
C1422       C  0.93684901  0.60327302  0.35705611     0.30400
F1423       F  0.97261735  0.61307109  0.34890188    -0.19000
H1424       H  0.91011155  0.66596736  0.36075867     0.18800
H1425       H  0.88412059  0.52433149  0.35287452     0.18400
F1426       F  0.81963384  0.57629454  0.35996461    -0.19000
C1427       C  0.84428679  0.88326481  0.37025063    -0.20400
C1428       C  0.85059384  0.84711171  0.38412236    -0.08500
C1429       C  0.88311849  0.84133273  0.40131075     0.30400
C1430       C  0.90885453  0.87088978  0.40402692    -0.20400
C1431       C  0.90256170  0.90684256  0.38993111    -0.08500
C1432       C  0.86984711  0.91261146  0.37294937     0.30400
F1433       F  0.86377769  0.94552265  0.35772767    -0.19000
H1434       H  0.81978727  0.88872742  0.35684176     0.18800
H1435       H  0.93410751  0.86550688  0.41689050     0.18800
F1436       F  0.89064592  0.80693477  0.41520198    -0.19000
C1437       C  0.75172096  0.70635415  0.26564625    -0.20400
C1438       C  0.74321313  0.74340130  0.27866295    -0.08500
C1439       C  0.73358028  0.77963141  0.26494103     0.30400
C1440       C  0.73325089  0.77871301  0.23886300    -0.20400
C1441       C  0.74287126  0.74186003  0.22585455    -0.08500
C1442       C  0.75176884  0.70551209  0.23952732     0.30400
F1443       F  0.75979389  0.66913290  0.22767727    -0.19000
H1444       H  0.75893977  0.67795092  0.27571133     0.18800
H1445       H  0.72631961  0.80706555  0.22875634     0.18800
F1446       F  0.72399233  0.81597023  0.27667352    -0.19000
C1447       C  0.53671235  0.48492860  0.23203690    -0.20400
C1448       C  0.00030841  0.48844438  0.21863732    -0.08500
C1449       C  0.96366578  0.99156843  0.23217902     0.30400
C1450       C  0.96421752  0.99224203  0.25826862    -0.20400
C1451       C  0.00073423  0.48883880  0.27146189    -0.08500
C1452       C  0.53700537  0.48491571  0.25814383     0.30400
F1453       F  0.57296257  0.48271975  0.27032107    -0.19000
H1454       H  0.56536722  0.48252462  0.22229919     0.18800
H1455       H  0.93583501  0.99500967  0.26830763     0.18800
F1456       F  0.92728751  0.99476538  0.22040032    -0.19000
C1457       C  0.60153570  0.62899356  0.10237868    -0.20400
C1458       C  0.60709039  0.59650848  0.11938742    -0.08500
C1459       C  0.64297611  0.59007871  0.13377400     0.30400
C1460       C  0.67217083  0.61595866  0.13115687    -0.20400
C1461       C  0.66596469  0.64867932  0.11442960    -0.08500
C1462       C  0.63057248  0.65481540  0.09994450     0.30400
F1463       F  0.62417691  0.68599886  0.08342591    -0.19000
H1464       H  0.57448666  0.63467357  0.09090965     0.18800
H1465       H  0.69909628  0.61130808  0.14280645     0.18800
F1466       F  0.64981796  0.55920411  0.15051034    -0.19000
C1467       C  0.65594447  0.81273070  0.11153070    -0.20400
C1468       C  0.68408208  0.81173682  0.13132078    -0.08500
C1469       C  0.68190335  0.84634978  0.14671643     0.30400
C1470       C  0.65054594  0.87894332  0.14372926    -0.20400
C1471       C  0.62103288  0.87843911  0.12494239    -0.08500
C1472       C  0.62443991  0.84501455  0.10866437     0.30400
F1473       F  0.59783974  0.84356356  0.08960888    -0.19000
H1474       H  0.65868177  0.78929005  0.09749708     0.18800
H1475       H  0.64962263  0.90473600  0.15611161     0.18800
F1476       F  0.71090039  0.84950530  0.16409259    -0.19000
C1477       C  0.81566591  0.64330964  0.14290547    -0.20400
C1478       C  0.82228314  0.68311653  0.13715575    -0.08500
C1479       C  0.86309534  0.68952650  0.13531355     0.30400
C1480       C  0.89387511  0.65673842  0.13141688    -0.20400
C1481       C  0.88546085  0.61673520  0.13259134    -0.08500
C1482       C  0.84649663  0.61028056  0.14001826     0.30400
F1483       F  0.83781547  0.57216858  0.14395674    -0.19000
H1484       H  0.78649154  0.63755835  0.14945866     0.18800
H1485       H  0.92470386  0.66252474  0.12893626     0.18800
F1486       F  0.87442643  0.72562931  0.14159410    -0.19000
C1487       C  0.86298552  0.90354774  0.12688551    -0.20400
C1488       C  0.89651666  0.89858271  0.11073929    -0.08500
C1489       C  0.89914965  0.86800353  0.09228872     0.30400
C1490       C  0.86962726  0.84212425  0.09091624    -0.20400
C1491       C  0.83682773  0.84666251  0.10755720    -0.08500
C1492       C  0.83358230  0.87796911  0.12540905     0.30400
F1493       F  0.80350510  0.88213405  0.14265289    -0.19000
H1494       H  0.85991646  0.92665508  0.14129028     0.18800
H1495       H  0.87271988  0.81793222  0.07721536     0.18800
F1496       F  0.93043193  0.86252116  0.07588272    -0.19000
C1497       C  0.50006182  0.97190289  0.98267487    -0.20400
C1498       C  0.49640906  0.50983789  0.97028528    -0.08500
C1499       C  0.99785402  0.54528750  0.98457216     0.30400
C1500       C  0.99866795  0.54346396  0.01074646    -0.20400
C1501       C  0.99842984  0.50635769  0.02333606    -0.08500
C1502       C  0.50124217  0.96993096  0.00873799     0.30400
F1503       F  0.50351412  0.93286805  0.01966336    -0.19000
H1504       H  0.50129002  0.94379028  0.97228507     0.18800
H1505       H  0.00005435  0.57115072  0.02117465     0.18800
F1506       F  0.99910313  0.58171064  0.97339383    -0.19000
C1507       C  0.62129875  0.67387172  0.89482636    -0.20400
C1508       C  0.65795295  0.66623848  0.88177589    -0.08500
C1509       C  0.66639316  0.63084516  0.86713756     0.30400
C1510       C  0.63846560  0.60371192  0.86570450    -0.20400
C1511       C  0.60157090  0.61140068  0.87862820    -0.08500
C1512       C  0.59328860  0.64676366  0.89340752     0.30400
F1513       F  0.55805357  0.65561108  0.90627165    -0.19000
H1514       H  0.61445134  0.70098276  0.90616539     0.18800
H1515       H  0.64562392  0.57686994  0.85416583     0.18800
F1516       F  0.70067971  0.62320930  0.85328786    -0.19000
C1517       C  0.84534253  0.68947831  0.84665043    -0.20400
C1518       C  0.81659650  0.69553757  0.86602752    -0.08500
C1519       C  0.82506987  0.67291700  0.88822656     0.30400
C1520       C  0.85784951  0.64160854  0.88938565    -0.20400
C1521       C  0.88327014  0.63278786  0.86879928    -0.08500
C1522       C  0.87749473  0.65744740  0.84756066     0.30400
F1523       F  0.90365245  0.65135039  0.82807920    -0.19000
H1524       H  0.84358997  0.70987694  0.83090347     0.18800
H1525       H  0.86312720  0.62382507  0.90632450     0.18800
F1526       F  0.80241152  0.68142733  0.90908063    -0.19000
C1527       C  0.64192386  0.87962881  0.88936090    -0.20400
C1528       C  0.61610832  0.89032543  0.86909746    -0.08500
C1529       C  0.62081269  0.86691675  0.84730011     0.30400
C1530       C  0.65180233  0.83384513  0.84556306    -0.20400
C1531       C  0.68059350  0.82525022  0.86479287    -0.08500
C1532       C  0.67387369  0.84743022  0.88730437     0.30400
F1533       F  0.69810258  0.83785781  0.90744266    -0.19000
H1534       H  0.63777165  0.89667140  0.90660646     0.18800
H1535       H  0.65151274  0.81438256  0.82973668     0.18800
F1536       F  0.59442591  0.87510442  0.82802050    -0.19000
C1537       C  0.86073182  0.92249130  0.88097352    -0.20400
C1538       C  0.89860307  0.91103943  0.86993466    -0.08500
C1539       C  0.90834272  0.87250200  0.85909010     0.30400
C1540       C  0.88012112  0.84545200  0.85947135    -0.20400
C1541       C  0.84222818  0.85641987  0.87104335    -0.08500
C1542       C  0.83280688  0.89528155  0.88182053     0.30400
F1543       F  0.79740306  0.90637285  0.89413568    -0.19000
H1544       H  0.85326452  0.95216925  0.88954912     0.18800
H1545       H  0.88788309  0.81603257  0.85068175     0.18800
F1546       F  0.94485410  0.86130623  0.84797639    -0.19000
C1547       C  0.96483195  0.51529590  0.73539058    -0.20400
C1548       C  0.50162619  0.50781272  0.72233117    -0.08500
C1549       C  0.53890820  0.00384763  0.73549712     0.30400
C1550       C  0.53872505  0.00562506  0.76155607    -0.20400
C1551       C  0.50142664  0.51180893  0.77494916    -0.08500
C1552       C  0.96457606  0.51714726  0.76139927     0.30400
F1553       F  0.92824095  0.52433359  0.77320147    -0.19000
H1554       H  0.93623667  0.51923526  0.72539546     0.18800
H1555       H  0.56746904  0.00157533  0.77137889     0.18800
F1556       F  0.57494083  0.99820309  0.72331543    -0.19000
C1557       C  0.71441176  0.75881013  0.51152919    -0.20400
C1558       C  0.75087888  0.74773727  0.52466063    -0.08500
C1559       C  0.78663658  0.73515708  0.51101832     0.30400
C1560       C  0.78567180  0.73393706  0.48495080    -0.20400
C1561       C  0.74922905  0.74525033  0.47181824    -0.08500
C1562       C  0.71344547  0.75769163  0.48549470     0.30400
F1563       F  0.67734152  0.76889390  0.47386435    -0.19000
H1564       H  0.68635459  0.76857670  0.52141807     0.18800
H1565       H  0.81370986  0.72419285  0.47503967     0.18800
F1566       F  0.82260765  0.72372145  0.52273966    -0.19000
C1567       C  0.75158735  0.71280295  0.73237684    -0.20400
C1568       C  0.74634257  0.74948744  0.71891387    -0.08500
C1569       C  0.74023787  0.78654102  0.73212897     0.30400
C1570       C  0.73980845  0.78666084  0.75811355    -0.20400
C1571       C  0.74520937  0.75007064  0.77156691    -0.08500
C1572       C  0.75105708  0.71300218  0.75844651     0.30400
F1573       F  0.75512169  0.67697919  0.77073662    -0.19000
H1574       H  0.75615802  0.68386985  0.72274761     0.18800
H1575       H  0.73567486  0.81556185  0.76775287     0.18800
F1576       F  0.73429471  0.82282866  0.72007222    -0.19000
C1577       C  0.89566184  0.62406152  0.60663401    -0.20400
C1578       C  0.86608201  0.62835371  0.62537867    -0.08500
C1579       C  0.86865860  0.59905344  0.64448377     0.30400
C1580       C  0.90149580  0.56772809  0.64540685    -0.20400
C1581       C  0.93304810  0.56542914  0.62784300    -0.08500
C1582       C  0.92801600  0.59239349  0.60735793     0.30400
F1583       F  0.95313826  0.58748852  0.58736567    -0.19000
H1584       H  0.89338656  0.64482791  0.59097548     0.18800
H1585       H  0.90191984  0.54498546  0.65984180     0.18800
F1586       F  0.83967789  0.60052879  0.66234877    -0.19000
C1587       C  0.60714493  0.88037377  0.60549674    -0.20400
C1588       C  0.63455998  0.87213461  0.62531190    -0.08500
C1589       C  0.63018433  0.89764229  0.64640832     0.30400
C1590       C  0.59797416  0.92944502  0.64792032    -0.20400
C1591       C  0.56829703  0.93549950  0.62913673    -0.08500
C1592       C  0.57496402  0.91219459  0.60708229     0.30400
F1593       F  0.55078355  0.92050324  0.58679141    -0.19000
H1594       H  0.61084511  0.86242346  0.58855251     0.18800
H1595       H  0.59753678  0.95007412  0.66348292     0.18800
F1596       F  0.65681992  0.89193634  0.66570610    -0.19000
C1597       C  0.88979925  0.83894154  0.60875457    -0.20400
C1598       C  0.85291931  0.84885183  0.62147224    -0.08500
C1599       C  0.84420385  0.88682740  0.63350410     0.30400
C1600       C  0.87181210  0.91431456  0.63246901    -0.20400
C1601       C  0.90838588  0.90456350  0.61946420    -0.08500
C1602       C  0.91736841  0.86646894  0.60776183     0.30400
F1603       F  0.95220486  0.85631583  0.59469234    -0.19000
H1604       H  0.89730427  0.80990942  0.59942083     0.18800
H1605       H  0.86464612  0.94320884  0.64197176     0.18800
F1606       F  0.80880670  0.89788851  0.64589358    -0.19000
C1607       C  0.65064731  0.61815938  0.63456955    -0.20400
C1608       C  0.64733168  0.65043074  0.61740547    -0.08500
C1609       C  0.61677399  0.65369230  0.59903529     0.30400
C1610       C  0.59007761  0.62525821  0.59815491    -0.20400
C1611       C  0.59382297  0.59308713  0.61518310    -0.08500
C1612       C  0.62411158  0.58967528  0.63349604     0.30400
F1613       F  0.62710411  0.55965294  0.65082342    -0.19000
H1614       H  0.67362210  0.61503968  0.64903101     0.18800
H1615       H  0.56661119  0.62793760  0.58400363     0.18800
F1616       F  0.61281676  0.68388704  0.58178796    -0.19000
loop_ 
_geom_bond_atom_site_label_1 
_geom_bond_atom_site_label_2 
_geom_bond_distance 
_geom_bond_site_symmetry_2 
_ccdc_geom_bond_type 
Zn1           O5   1.945       .  S
Zn1           O6   1.998       .  S
Zn1          O10   1.978       .  S
Zn1          O17   2.013       .  S
Zn2           O5   1.944       .  S
Zn2           O7   2.018       .  S
Zn2           O9   2.007       .  S
Zn2          O13   1.995       .  S
Zn3           O5   1.948       .  S
Zn3           O8   1.988       .  S
Zn3          O11   2.013       .  S
Zn3          O14   2.010       .  S
Zn4           O5   1.937       .  S
Zn4          O12   1.985       .  S
Zn4          O15   1.972       .  S
Zn4          O16   1.994       .  S
O6           C18   1.271       .  A
O7           C19   1.273       .  A
O8           C20   1.271       .  A
O9           C18   1.273       .  A
O10          C20   1.271       .  A
O11          C19   1.273       .  A
O12          C21   1.269       .  A
O13          C22   1.273       .  A
O14          C21   1.273       .  A
O15          C22   1.269       .  A
O16          C23   1.270       .  A
O17          C23   1.272       .  A
C18         C366   1.479       .  S
C19         C346   1.486       .  S
C20         C396   1.468       .  S
C21         C376   1.475       .  S
C22         C386   1.468       .  S
C23         C356   1.480       .  S
C24          C27   1.544       .  S
C24         C379   1.522       .  S
C24         C834   1.527   1_455  S
C24         C432   1.526       .  S
C25          C30   1.543       .  S
C25         C369   1.526       .  S
C25         C433   1.529   1_545  S
C25         C839   1.534       .  S
C26         C832   1.527       .  S
C26          C34   1.372       .  A
C26          C29   1.398       .  A
C27          C38   1.379       .  A
C27        C1242   1.395   1_455  A
C28         C428   1.526   1_545  S
C28          C42   1.374       .  A
C28          C31   1.404       .  A
C29         C429   1.528       .  S
C29          C32   1.374       .  A
C30          C36   1.378       .  A
C30        C1239   1.396   1_545  A
C31         C833   1.534   1_455  S
C31          C39   1.377       .  A
C32          N33   1.353       .  A
C32          H45   1.082       .  S
N33          C34   1.350       .  A
N33         C389   1.429       .  S
C34          H35   1.082       .  S
C36         N845   1.357       .  A
C36          H46   1.080       .  S
N37         C844   1.357   1_455  A
N37         C442   1.356   1_545  A
N37         C336   1.437       .  S
C38         N441   1.356       .  A
C38          H44   1.082       .  S
C39          N40   1.346       .  A
C39          H41   1.084       .  S
N40          C42   1.347       .  A
N40         C399   1.421       .  S
C42          H43   1.081       .  S
Zn47        O859   1.948       .  S
Zn47         O52   1.997       .  S
Zn47         O56   2.009       .  S
Zn47        O467   1.992   1_545  S
Zn48         O51   1.956   1_455  S
Zn48         O53   2.003       .  S
Zn48         O55   2.026       .  S
Zn48        O463   2.011   1_545  S
Zn49         O51   1.953       .  S
Zn49         O57   1.982   1_655  S
Zn49         O60   2.021       .  S
Zn49        O862   2.008       .  S
Zn50        O455   1.954   1_455  S
Zn50         O58   2.036       .  S
Zn50         O61   2.017       .  S
Zn50        O870   2.004   1_455  S
O51        Zn855   1.948       .  S
O51        Zn454   1.954   1_645  S
O52         C872   1.270       .  A
O53          C65   1.275       .  A
O54        Zn857   2.008       .  S
O54          C66   1.271       .  A
O55          C64   1.273       .  A
O56          C66   1.271       .  A
O57          C65   1.271       .  A
O58         C471   1.276   1_455  A
O59        Zn452   2.011       .  S
O59          C68   1.272       .  A
O60          C67   1.272       .  A
O61          C68   1.272       .  A
O62        Zn858   2.004       .  S
O62          C69   1.273       .  A
O63        Zn451   1.992       .  S
O63          C69   1.271       .  A
C64         O860   1.270   1_455  A
C64         C339   1.484       .  S
C65         C299   1.473       .  S
C66         C309   1.464       .  S
C67         O462   1.276   1_645  A
C67         C286   1.493       .  S
C68         C316   1.467       .  S
C69         C326   1.454       .  S
C70          C72   1.525       .  S
C70          C74   1.532       .  S
C70          C73   1.546       .  S
C70         C306   1.528       .  S
C71          C75   1.532       .  S
C71          C77   1.535       .  S
C71          C76   1.546       .  S
C71         C319   1.531       .  S
C72          C80   1.373       .  A
C72          C75   1.394       .  A
C73          C84   1.380       .  A
C73          C76   1.397       .  A
C74          C88   1.374       .  A
C74          C77   1.406       .  A
C75          C78   1.375       .  A
C76          C82   1.379       .  A
C77          C85   1.379       .  A
C78          N79   1.356       .  A
C78          H91   1.082       .  S
N79          C80   1.355       .  A
N79         C329   1.436       .  S
C80          H81   1.082       .  S
C82          N83   1.356       .  A
C82          H92   1.076       .  S
N83          C84   1.355       .  A
N83         C359   1.439       .  S
C84          H90   1.078       .  S
C85          N86   1.352       .  A
C85          H87   1.081       .  S
N86          C88   1.348       .  A
N86         C296   1.432       .  S
C88          H89   1.082       .  S
Zn93         O97   1.949       .  S
Zn93        O102   1.999   1_565  S
Zn93        O109   2.031       .  S
Zn93        O502   1.996       .  S
Zn94        O501   1.960       .  S
Zn94         O99   2.034       .  S
Zn94        O101   2.032       .  S
Zn94        O913   2.038       .  S
Zn95         O97   1.959   1_545  S
Zn95        O100   2.030       .  S
Zn95        O103   2.046       .  S
Zn95        O914   2.005       .  S
Zn96        O905   1.956       .  S
Zn96        O104   2.000   1_565  S
Zn96        O108   2.015       .  S
Zn96        O511   1.992       .  S
O97        Zn498   1.961       .  S
O97        Zn904   1.956       .  S
O98        Zn497   1.998       .  S
O98         C110   1.273       .  A
O99         C515   1.276       .  A
O100        C112   1.276       .  A
O101        C110   1.275       .  A
O102        C112   1.271       .  A
O103        C111   1.277       .  A
O104        C113   1.272       .  A
O105       Zn902   2.038       .  S
O105        C114   1.278       .  A
O106       Zn903   2.006   1_455  S
O106        C113   1.274       .  A
O107       Zn500   1.992       .  S
O107        C114   1.271       .  A
O108        C923   1.273       .  A
O109        C115   1.274       .  A
C110        C276   1.485       .  S
C111        O503   1.276   1_545  A
C111        C289   1.496       .  S
C112        C269   1.477       .  S
C113        C246   1.479       .  S
C114        C259   1.485       .  S
C115        O916   1.273       .  A
C115        C236   1.490       .  S
C116        C118   1.523       .  S
C116        C120   1.536       .  S
C116        C119   1.536       .  S
C116        C256   1.531       .  S
C117        C121   1.553       .  S
C117        C123   1.556       .  S
C117        C122   1.540       .  S
C117        C266   1.540       .  S
C118        C126   1.373       .  A
C118        C121   1.390       .  A
C119        C130   1.378       .  A
C119        C122   1.392       .  A
C120        C134   1.376       .  A
C120        C123   1.409       .  A
C121        C124   1.386       .  A
C122        C128   1.378       .  A
C123        C131   1.390       .  A
C124        N125   1.356       .  A
C124        H137   1.078       .  S
N125        C126   1.354       .  A
N125        C279   1.437       .  S
C126        H127   1.083       .  S
C128        N129   1.361       .  A
C128        H138   1.083       .  S
N129        C130   1.361       .  A
N129        C229   1.443       .  S
C130        H136   1.082       .  S
C131        N132   1.352       .  A
C131        H133   1.077       .  S
N132        C134   1.345       .  A
N132        C249   1.433       .  S
C134        H135   1.084       .  S
C139        C142   1.530       .  S
C139        C209   1.538       .  S
C139        C545   1.551   1_545  S
C139        C951   1.550       .  S
C140        C145   1.533       .  S
C140        C196   1.539       .  S
C140        C952   1.551   1_455  S
C140        C550   1.549       .  S
C141        C543   1.551       .  S
C141        C149   1.380       .  A
C141        C144   1.399       .  A
C142        C153   1.375       .  A
C142       C1357   1.388   1_545  A
C143        C947   1.550   1_455  S
C143        C157   1.386       .  A
C143        C146   1.399       .  A
C144        C948   1.551       .  S
C144        C147   1.386       .  A
C145        C151   1.378       .  A
C145       C1354   1.389   1_455  A
C146        C544   1.550   1_545  S
C146        C154   1.380       .  A
C147        N148   1.356       .  A
C147        H160   1.080       .  S
N148        C149   1.355       .  A
N148        C219   1.446       .  S
C149        H150   1.080       .  S
C151       N1364   1.360       .  A
C151        H161   1.082       .  S
N152        C153   1.359   1_565  A
N152       C1363   1.360       .  A
N152        C239   1.440       .  S
C153        H159   1.083       .  S
C154        N155   1.355       .  A
C154        H156   1.080       .  S
N155        C157   1.356       .  A
N155        C189   1.445       .  S
C157        H158   1.077       .  S
Zn162       O166   1.951       .  S
Zn162       O167   2.008       .  S
Zn162       O171   2.013       .  S
Zn162       O178   2.017       .  S
Zn163       O166   1.959       .  S
Zn163       O168   2.036       .  S
Zn163       O170   2.031       .  S
Zn163       O174   2.018       .  S
Zn164       O166   1.950       .  S
Zn164       O169   2.026       .  S
Zn164       O172   2.006       .  S
Zn164       O175   2.018       .  S
Zn165       O166   1.952       .  S
Zn165       O173   2.029       .  S
Zn165       O176   2.026       .  S
Zn165       O177   2.016       .  S
O167        C179   1.274       .  A
O168        C180   1.276       .  A
O169        C181   1.276       .  A
O170        C179   1.277       .  A
O171        C181   1.271       .  A
O172        C180   1.272       .  A
O173        C182   1.277       .  A
O174        C183   1.272       .  A
O175        C182   1.275       .  A
O176        C183   1.276       .  A
O177        C184   1.273       .  A
O178        C184   1.274       .  A
C179        C349   1.487       .  S
C180        C206   1.476       .  S
C181        C186   1.487       .  S
C182        C226   1.483       .  S
C183        C216   1.489       .  S
C184        C199   1.474       .  S
C185        C186   1.402       .  A
C185        C190   1.394       .  A
C185        H192   1.082       .  S
C186        C187   1.413       .  A
C187        C188   1.404       .  A
C187        F194   1.357       .  S
C188        C189   1.405       .  A
C188        H193   1.083       .  S
C189        C190   1.411       .  A
C190        F191   1.356       .  S
C195        C196   1.411       .  A
C195        C200   1.398       .  A
C195        H202   1.080       .  S
C196        C197   1.412       .  A
C197        C198   1.399       .  A
C197        F204   1.354       .  S
C198        C199   1.401       .  A
C198        H203   1.085       .  S
C199        C200   1.403       .  A
C200        F201   1.358       .  S
C205        C206   1.402       .  A
C205        C210   1.401       .  A
C205        H212   1.083       .  S
C206        C207   1.404       .  A
C207        C208   1.397       .  A
C207        F214   1.358       .  S
C208        C209   1.408       .  A
C208        H213   1.079       .  S
C209        C210   1.410       .  A
C210        F211   1.355       .  S
C215        C216   1.403       .  A
C215        C220   1.394       .  A
C215        H222   1.083       .  S
C216        C217   1.413       .  A
C217        C218   1.404       .  A
C217        F224   1.357       .  S
C218        C219   1.405       .  A
C218        H223   1.082       .  S
C219        C220   1.412       .  A
C220        F221   1.356       .  S
C225        C226   1.406       .  A
C225        C230   1.401       .  A
C225        H232   1.084       .  S
C226        C227   1.407       .  A
C227        C228   1.398       .  A
C227        F234   1.357       .  S
C228        C229   1.405       .  A
C228        H233   1.083       .  S
C229        C230   1.409       .  A
C230        F231   1.357       .  S
C235        C240   1.400       .  A
C235       C1044   1.409       .  A
C235        H242   1.082       .  S
C236       C1043   1.409       .  A
C236        C641   1.411       .  A
C237        C238   1.400       .  A
C237        C640   1.411       .  A
C237        F244   1.357       .  S
C238        C643   1.403       .  A
C238        H243   1.082       .  S
C239        C642   1.403       .  A
C239       C1048   1.405       .  A
C240       C1047   1.405       .  A
C240        F241   1.357       .  S
C245        C246   1.405       .  A
C245        C250   1.391       .  A
C245        H252   1.085       .  S
C246        C247   1.412       .  A
C247        C248   1.398       .  A
C247        F254   1.358       .  S
C248        C249   1.402       .  A
C248        H253   1.085       .  S
C249        C250   1.402       .  A
C250        F251   1.357       .  S
C255        C256   1.412       .  A
C255        C260   1.394       .  A
C255        H262   1.078       .  S
C256        C257   1.409       .  A
C257        C258   1.400       .  A
C257        F264   1.357       .  S
C258        C259   1.409       .  A
C258        H263   1.081       .  S
C259        C260   1.403       .  A
C260        F261   1.357       .  S
C265        C266   1.408       .  A
C265        C270   1.397       .  A
C265        H272   1.077       .  S
C266        C267   1.412       .  A
C267        C268   1.399       .  A
C267        F274   1.353       .  S
C268        C269   1.401       .  A
C268        H273   1.081       .  S
C269        C270   1.406       .  A
C270        F271   1.357       .  S
C275        C276   1.406       .  A
C275        C280   1.392       .  A
C275        H282   1.083       .  S
C276        C277   1.412       .  A
C277        C278   1.403       .  A
C277        F284   1.357       .  S
C278        C279   1.404       .  A
C278        H283   1.082       .  S
C279        C280   1.406       .  A
C280        F281   1.357       .  S
C285        C290   1.400   1_556  A
C285        C690   1.405       .  A
C285        H292   1.083       .  S
C286        C689   1.405   1_645  A
C286       C1095   1.413       .  A
C287        C288   1.405   1_556  A
C287       C1094   1.413       .  A
C287        F294   1.358       .  S
C288        C289   1.408       .  A
C288        H293   1.083       .  S
C289       C1502   1.411   1_545  A
C290       C1501   1.411       .  A
C290        F291   1.357       .  S
C295        C296   1.400       .  A
C295        C300   1.393       .  A
C295        H302   1.083       .  S
C296        C297   1.407       .  A
C297        C298   1.391       .  A
C297        F304   1.356       .  S
C298        C299   1.403       .  A
C298        H303   1.083       .  S
C299        C300   1.410       .  A
C300        F301   1.358       .  S
C305        C306   1.409       .  A
C305        C310   1.397       .  A
C305        H312   1.080       .  S
C306        C307   1.415       .  A
C307        C308   1.395       .  A
C307        F314   1.357       .  S
C308        C309   1.397       .  A
C308        H313   1.084       .  S
C309        C310   1.401       .  A
C310        F311   1.358       .  S
C315        C316   1.399       .  A
C315        C320   1.399       .  A
C315        H322   1.082       .  S
C316        C317   1.400       .  A
C317        C318   1.397       .  A
C317        F324   1.358       .  S
C318        C319   1.409       .  A
C318        H323   1.063       .  S
C319        C320   1.414       .  A
C320        F321   1.357       .  S
C325        C326   1.397       .  A
C325        C330   1.392       .  A
C325        H332   1.083       .  S
C326        C327   1.400       .  A
C327        C328   1.394       .  A
C327        F334   1.358       .  S
C328        C329   1.408       .  A
C328        H333   1.082       .  S
C329        C330   1.408       .  A
C330        F331   1.356       .  S
C335        C340   1.396       .  A
C335       C1144   1.401       .  A
C335        H342   1.084       .  S
C336       C1143   1.401   1_455  A
C336        C741   1.406       .  A
C337        C338   1.398       .  A
C337        C740   1.406       .  A
C337        F344   1.357       .  S
C338        C743   1.406       .  A
C338        H343   1.084       .  S
C339        C742   1.406       .  A
C339       C1148   1.412   1_455  A
C340       C1147   1.412       .  A
C340        F341   1.357       .  S
C345        C346   1.405       .  A
C345        C350   1.397       .  A
C345        H352   1.083       .  S
C346        C347   1.410       .  A
C347        C348   1.399       .  A
C347        F354   1.357       .  S
C348        C349   1.406       .  A
C348        H353   1.083       .  S
C349        C350   1.411       .  A
C350        F351   1.358       .  S
C355        C356   1.407       .  A
C355        C360   1.398       .  A
C355        H362   1.082       .  S
C356        C357   1.409       .  A
C357        C358   1.393       .  A
C357        F364   1.358       .  S
C358        C359   1.403       .  A
C358        H363   1.081       .  S
C359        C360   1.407       .  A
C360        F361   1.357       .  S
C365        C366   1.402       .  A
C365        C370   1.393       .  A
C365        H372   1.083       .  S
C366        C367   1.408       .  A
C367        C368   1.397       .  A
C367        F374   1.358       .  S
C368        C369   1.407       .  A
C368        H373   1.081       .  S
C369        C370   1.413       .  A
C370        F371   1.356       .  S
C375        C376   1.401       .  A
C375        C380   1.393       .  A
C375        H382   1.084       .  S
C376        C377   1.408       .  A
C377        C378   1.393       .  A
C377        F384   1.358       .  S
C378        C379   1.405       .  A
C378        H383   1.078       .  S
C379        C380   1.413       .  A
C380        F381   1.357       .  S
C385        C386   1.403       .  A
C385        C390   1.390       .  A
C385        H392   1.083       .  S
C386        C387   1.409       .  A
C387        C388   1.391       .  A
C387        F394   1.358       .  S
C388        C389   1.402       .  A
C388        H393   1.082       .  S
C389        C390   1.404       .  A
C390        F391   1.357       .  S
C395        C396   1.406       .  A
C395        C400   1.389       .  A
C395        H402   1.084       .  S
C396        C397   1.409       .  A
C397        C398   1.391       .  A
C397        F404   1.358       .  S
C398        C399   1.398       .  A
C398        H403   1.083       .  S
C399        C400   1.400       .  A
C400        F401   1.357       .  S
Zn405       O409   1.946       .  S
Zn405       O410   1.998       .  S
Zn405       O414   1.976       .  S
Zn405       O421   2.012       .  S
Zn406       O409   1.945       .  S
Zn406       O411   2.019       .  S
Zn406       O413   2.006       .  S
Zn406       O417   1.997       .  S
Zn407       O409   1.949       .  S
Zn407       O412   1.993       .  S
Zn407       O415   2.011       .  S
Zn407       O418   2.012       .  S
Zn408       O409   1.936       .  S
Zn408       O416   1.987       .  S
Zn408       O419   1.973       .  S
Zn408       O420   1.993       .  S
O410        C422   1.270       .  A
O411        C423   1.273       .  A
O412        C424   1.272       .  A
O413        C422   1.273       .  A
O414        C424   1.271       .  A
O415        C423   1.273       .  A
O416        C425   1.269       .  A
O417        C426   1.273       .  A
O418        C425   1.273       .  A
O419        C426   1.269       .  A
O420        C427   1.270       .  A
O421        C427   1.272       .  A
C422        C770   1.478       .  S
C423        C750   1.486       .  S
C424        C800   1.470       .  S
C425        C780   1.476       .  S
C426        C790   1.469       .  S
C427        C760   1.480       .  S
C428       C1238   1.527   1_455  S
C428        C431   1.545       .  S
C428        C783   1.523       .  S
C429       C1243   1.533       .  S
C429        C434   1.542       .  S
C429        C773   1.525       .  S
C430       C1236   1.527       .  S
C430        C438   1.372       .  A
C430        C433   1.397       .  A
C431        C442   1.380       .  A
C431        C838   1.396   1_465  A
C432        C446   1.375       .  A
C432        C435   1.403       .  A
C433        C436   1.375       .  A
C434        C835   1.395       .  A
C434        C440   1.378       .  A
C435       C1237   1.533   1_455  S
C435        C443   1.376       .  A
C436        N437   1.354       .  A
C436        H449   1.082       .  S
N437        C438   1.350       .  A
N437        C793   1.430       .  S
C438        H439   1.082       .  S
C440       N1249   1.356       .  A
C440        H450   1.080       .  S
N441       C1248   1.356   1_455  A
N441        C740   1.436       .  S
C442        H448   1.082       .  S
C443        N444   1.347       .  A
C443        H445   1.084       .  S
N444        C446   1.348       .  A
N444        C803   1.423       .  S
C446        H447   1.081       .  S
Zn451      O1263   1.948       .  S
Zn451       O456   1.997       .  S
Zn451       O460   2.007       .  S
Zn452       O455   1.956   1_455  S
Zn452       O457   2.004       .  S
Zn452       O459   2.026       .  S
Zn453       O455   1.953       .  S
Zn453      O1266   2.008       .  S
Zn453       O461   1.981   1_655  S
Zn453       O464   2.020       .  S
Zn454       O462   2.033       .  S
Zn454       O465   2.014       .  S
Zn454      O1274   2.003   1_455  S
O455      Zn1259   1.948       .  S
O456       C1276   1.270       .  A
O457        C469   1.275       .  A
O458      Zn1261   2.008       .  S
O458        C470   1.271       .  A
O459        C468   1.273       .  A
O460        C470   1.271       .  A
O461        C469   1.271       .  A
O463        C472   1.272       .  A
O464        C471   1.272       .  A
O465        C472   1.272       .  A
O466      Zn1262   2.003       .  S
O466        C473   1.273       .  A
O467        C473   1.271       .  A
C468       O1264   1.270   1_455  A
C468        C743   1.484       .  S
C469        C703   1.473       .  S
C470        C713   1.463       .  S
C471        C690   1.493       .  S
C472        C720   1.466       .  S
C473        C730   1.453       .  S
C474        C476   1.524       .  S
C474        C478   1.532       .  S
C474        C477   1.546       .  S
C474        C710   1.527       .  S
C475        C479   1.531       .  S
C475        C481   1.534       .  S
C475        C480   1.545       .  S
C475        C723   1.530       .  S
C476        C484   1.373       .  A
C476        C479   1.394       .  A
C477        C488   1.380       .  A
C477        C480   1.397       .  A
C478        C492   1.374       .  A
C478        C481   1.406       .  A
C479        C482   1.375       .  A
C480        C486   1.379       .  A
C481        C489   1.378       .  A
C482        N483   1.355       .  A
C482        H495   1.082       .  S
N483        C484   1.354       .  A
N483        C733   1.435       .  S
C484        H485   1.082       .  S
C486        N487   1.356       .  A
C486        H496   1.079       .  S
N487        C488   1.356       .  A
N487        C763   1.439       .  S
C488        H494   1.078       .  S
C489        N490   1.352       .  A
C489        H491   1.081       .  S
N490        C492   1.348       .  A
N490        C700   1.431       .  S
C492        H493   1.082       .  S
Zn497       O501   1.948       .  S
Zn497       O506   1.999       .  S
Zn497       O513   2.029       .  S
Zn498       O503   2.032       .  S
Zn498       O505   2.028       .  S
Zn498      O1317   2.038       .  S
Zn499       O501   1.959       .  S
Zn499       O504   2.031       .  S
Zn499       O507   2.048       .  S
Zn499      O1318   2.009       .  S
Zn500      O1309   1.958       .  S
Zn500       O508   2.002       .  S
Zn500       O512   2.016       .  S
O501      Zn1308   1.958       .  S
O502        C514   1.273       .  A
O504        C516   1.276       .  A
O505        C514   1.275       .  A
O506        C516   1.271       .  A
O507        C515   1.277       .  A
O508        C517   1.272       .  A
O509      Zn1306   2.038       .  S
O509        C518   1.278       .  A
O510      Zn1307   2.009   1_455  S
O510        C517   1.274       .  A
O511        C518   1.271       .  A
O512       C1327   1.273       .  A
O513        C519   1.274       .  A
C514        C680   1.484       .  S
C515        C693   1.495       .  S
C516        C673   1.477       .  S
C517        C650   1.481       .  S
C518        C663   1.485       .  S
C519       O1320   1.273       .  A
C519        C640   1.489       .  S
C520        C522   1.522       .  S
C520        C524   1.537       .  S
C520        C523   1.536       .  S
C520        C660   1.531       .  S
C521        C525   1.553       .  S
C521        C527   1.556       .  S
C521        C526   1.540       .  S
C521        C670   1.540       .  S
C522        C530   1.372       .  A
C522        C525   1.390       .  A
C523        C534   1.378       .  A
C523        C526   1.392       .  A
C524        C538   1.376       .  A
C524        C527   1.410       .  A
C525        C528   1.386       .  A
C526        C532   1.378       .  A
C527        C535   1.390       .  A
C528        N529   1.356       .  A
C528        H541   1.078       .  S
N529        C530   1.353       .  A
N529        C683   1.436       .  S
C530        H531   1.082       .  S
C532        N533   1.360       .  A
C532        H542   1.082       .  S
N533        C534   1.361       .  A
N533        C633   1.442       .  S
C534        H540   1.083       .  S
C535        N536   1.352       .  A
C535        H537   1.077       .  S
N536        C538   1.345       .  A
N536        C653   1.432       .  S
C538        H539   1.084       .  S
C543       C1355   1.549       .  S
C543        C546   1.531       .  S
C543        C613   1.539       .  S
C544       C1356   1.551   1_455  S
C544        C549   1.533       .  S
C544        C600   1.539       .  S
C545        C553   1.381       .  A
C545        C548   1.399       .  A
C546        C557   1.376       .  A
C546        C953   1.389       .  A
C547       C1351   1.549   1_455  S
C547        C561   1.386       .  A
C547        C550   1.398       .  A
C548       C1352   1.551       .  S
C548        C551   1.387       .  A
C549        C950   1.388   1_465  A
C549        C555   1.379       .  A
C550        C558   1.379       .  A
C551        N552   1.356       .  A
C551        H564   1.080       .  S
N552        C553   1.354       .  A
N552        C623   1.445       .  S
C553        H554   1.080       .  S
C555        N960   1.360       .  A
C555        H565   1.082       .  S
N556        C959   1.360       .  A
N556        C557   1.360       .  A
N556        C643   1.440       .  S
C557        H563   1.083       .  S
C558        N559   1.355       .  A
C558        H560   1.080       .  S
N559        C561   1.356       .  A
N559        C593   1.445       .  S
C561        H562   1.077       .  S
Zn566       O570   1.953       .  S
Zn566       O571   2.011       .  S
Zn566       O575   2.016       .  S
Zn566       O582   2.019       .  S
Zn567       O570   1.958       .  S
Zn567       O572   2.036       .  S
Zn567       O574   2.027       .  S
Zn567       O578   2.016       .  S
Zn568       O570   1.950       .  S
Zn568       O573   2.024       .  S
Zn568       O576   2.008       .  S
Zn568       O579   2.019       .  S
Zn569       O570   1.953       .  S
Zn569       O577   2.030       .  S
Zn569       O580   2.028       .  S
Zn569       O581   2.017       .  S
O571        C583   1.275       .  A
O572        C584   1.276       .  A
O573        C585   1.276       .  A
O574        C583   1.277       .  A
O575        C585   1.272       .  A
O576        C584   1.272       .  A
O577        C586   1.277       .  A
O578        C587   1.272       .  A
O579        C586   1.275       .  A
O580        C587   1.277       .  A
O581        C588   1.273       .  A
O582        C588   1.274       .  A
C583        C753   1.486       .  S
C584        C610   1.477       .  S
C585        C590   1.487       .  S
C586        C630   1.485       .  S
C587        C620   1.489       .  S
C588        C603   1.475       .  S
C589        C590   1.403       .  A
C589        C594   1.394       .  A
C589        H596   1.082       .  S
C590        C591   1.413       .  A
C591        C592   1.404       .  A
C591        F598   1.357       .  S
C592        C593   1.405       .  A
C592        H597   1.082       .  S
C593        C594   1.412       .  A
C594        F595   1.356       .  S
C599        C600   1.411       .  A
C599        C604   1.398       .  A
C599        H606   1.080       .  S
C600        C601   1.412       .  A
C601        C602   1.399       .  A
C601        F608   1.354       .  S
C602        C603   1.401       .  A
C602        H607   1.085       .  S
C603        C604   1.403       .  A
C604        F605   1.358       .  S
C609        C610   1.403       .  A
C609        C614   1.402       .  A
C609        H616   1.084       .  S
C610        C611   1.404       .  A
C611        C612   1.397       .  A
C611        F618   1.358       .  S
C612        C613   1.408       .  A
C612        H617   1.080       .  S
C613        C614   1.411       .  A
C614        F615   1.355       .  S
C619        C620   1.403       .  A
C619        C624   1.394       .  A
C619        H626   1.083       .  S
C620        C621   1.414       .  A
C621        C622   1.404       .  A
C621        F628   1.357       .  S
C622        C623   1.404       .  A
C622        H627   1.082       .  S
C623        C624   1.411       .  A
C624        F625   1.357       .  S
C629        C630   1.407       .  A
C629        C634   1.401       .  A
C629        H636   1.084       .  S
C630        C631   1.408       .  A
C631        C632   1.399       .  A
C631        F638   1.357       .  S
C632        C633   1.405       .  A
C632        H637   1.083       .  S
C633        C634   1.408       .  A
C634        F635   1.357       .  S
C639       C1448   1.409       .  A
C639        C644   1.400       .  A
C639        H646   1.082       .  S
C640       C1447   1.409       .  A
C641        C642   1.400       .  A
C641        F648   1.357       .  S
C642        H647   1.082       .  S
C643       C1452   1.405       .  A
C644       C1451   1.405       .  A
C644        F645   1.357       .  S
C649        C650   1.405       .  A
C649        C654   1.392       .  A
C649        H656   1.084       .  S
C650        C651   1.412       .  A
C651        C652   1.398       .  A
C651        F658   1.358       .  S
C652        C653   1.402       .  A
C652        H657   1.085       .  S
C653        C654   1.402       .  A
C654        F655   1.357       .  S
C659        C660   1.413       .  A
C659        C664   1.395       .  A
C659        H666   1.077       .  S
C660        C661   1.409       .  A
C661        C662   1.399       .  A
C661        F668   1.357       .  S
C662        C663   1.409       .  A
C662        H667   1.081       .  S
C663        C664   1.404       .  A
C664        F665   1.358       .  S
C669        C670   1.408       .  A
C669        C674   1.398       .  A
C669        H676   1.078       .  S
C670        C671   1.412       .  A
C671        C672   1.398       .  A
C671        F678   1.353       .  S
C672        C673   1.401       .  A
C672        H677   1.082       .  S
C673        C674   1.406       .  A
C674        F675   1.357       .  S
C679        C680   1.406       .  A
C679        C684   1.392       .  A
C679        H686   1.083       .  S
C680        C681   1.411       .  A
C681        C682   1.402       .  A
C681        F688   1.357       .  S
C682        C683   1.403       .  A
C682        H687   1.082       .  S
C683        C684   1.406       .  A
C684        F685   1.357       .  S
C689        C694   1.399   1_556  A
C689        H696   1.083       .  S
C690       C1499   1.413       .  A
C691       C1498   1.413       .  A
C691        C692   1.405   1_556  A
C691        F698   1.358       .  S
C692        C693   1.408       .  A
C692        H697   1.083       .  S
C693       C1098   1.411       .  A
C694       C1097   1.411   1_465  A
C694        F695   1.357       .  S
C699        C700   1.400       .  A
C699        C704   1.392       .  A
C699        H706   1.083       .  S
C700        C701   1.407       .  A
C701        C702   1.391       .  A
C701        F708   1.356       .  S
C702        C703   1.403       .  A
C702        H707   1.083       .  S
C703        C704   1.410       .  A
C704        F705   1.358       .  S
C709        C710   1.409       .  A
C709        C714   1.396       .  A
C709        H716   1.080       .  S
C710        C711   1.414       .  A
C711        C712   1.395       .  A
C711        F718   1.357       .  S
C712        C713   1.397       .  A
C712        H717   1.084       .  S
C713        C714   1.400       .  A
C714        F715   1.358       .  S
C719        C720   1.398       .  A
C719        C724   1.399       .  A
C719        H726   1.082       .  S
C720        C721   1.400       .  A
C721        C722   1.396       .  A
C721        F728   1.358       .  S
C722        C723   1.408       .  A
C722        H727   1.068       .  S
C723        C724   1.415       .  A
C724        F725   1.357       .  S
C729        C730   1.397       .  A
C729        C734   1.392       .  A
C729        H736   1.083       .  S
C730        C731   1.400       .  A
C731        C732   1.395       .  A
C731        F738   1.358       .  S
C732        C733   1.407       .  A
C732        H737   1.082       .  S
C733        C734   1.407       .  A
C734        F735   1.356       .  S
C739       C1548   1.401       .  A
C739        C744   1.396       .  A
C739        H746   1.084       .  S
C740       C1547   1.401   1_455  A
C741        C742   1.398       .  A
C741        F748   1.357   1_545  S
C742        H747   1.084       .  S
C743       C1552   1.412   1_455  A
C744       C1551   1.412       .  A
C744        F745   1.357       .  S
C749        C750   1.406       .  A
C749        C754   1.397       .  A
C749        H756   1.083       .  S
C750        C751   1.410       .  A
C751        C752   1.399       .  A
C751        F758   1.357       .  S
C752        C753   1.406       .  A
C752        H757   1.083       .  S
C753        C754   1.410       .  A
C754        F755   1.358       .  S
C759        C760   1.406       .  A
C759        C764   1.398       .  A
C759        H766   1.082       .  S
C760        C761   1.409       .  A
C761        C762   1.393       .  A
C761        F768   1.358       .  S
C762        C763   1.403       .  A
C762        H767   1.081       .  S
C763        C764   1.407       .  A
C764        F765   1.357       .  S
C769        C770   1.402       .  A
C769        C774   1.392       .  A
C769        H776   1.083       .  S
C770        C771   1.408       .  A
C771        C772   1.396       .  A
C771        F778   1.358       .  S
C772        C773   1.407       .  A
C772        H777   1.081       .  S
C773        C774   1.413       .  A
C774        F775   1.356       .  S
C779        C780   1.401       .  A
C779        C784   1.394       .  A
C779        H786   1.084       .  S
C780        C781   1.408       .  A
C781        C782   1.394       .  A
C781        F788   1.358       .  S
C782        C783   1.405       .  A
C782        H787   1.078       .  S
C783        C784   1.413       .  A
C784        F785   1.357       .  S
C789        C790   1.403       .  A
C789        C794   1.391       .  A
C789        H796   1.083       .  S
C790        C791   1.409       .  A
C791        C792   1.391       .  A
C791        F798   1.358       .  S
C792        C793   1.402       .  A
C792        H797   1.082       .  S
C793        C794   1.405       .  A
C794        F795   1.357       .  S
C799        C800   1.406       .  A
C799        C804   1.389       .  A
C799        H806   1.083       .  S
C800        C801   1.409       .  A
C801        C802   1.392       .  A
C801        F808   1.358       .  S
C802        C803   1.399       .  A
C802        H807   1.083       .  S
C803        C804   1.400       .  A
C804        F805   1.357       .  S
Zn809       O813   1.945       .  S
Zn809       O814   1.998       .  S
Zn809       O818   1.978       .  S
Zn809       O825   2.013       .  S
Zn810       O813   1.944       .  S
Zn810       O815   2.018       .  S
Zn810       O817   2.007       .  S
Zn810       O821   1.995       .  S
Zn811       O813   1.948       .  S
Zn811       O816   1.988       .  S
Zn811       O819   2.013       .  S
Zn811       O822   2.010       .  S
Zn812       O813   1.937       .  S
Zn812       O820   1.985       .  S
Zn812       O823   1.972       .  S
Zn812       O824   1.994       .  S
O814        C826   1.271       .  A
O815        C827   1.273       .  A
O816        C828   1.271       .  A
O817        C826   1.273       .  A
O818        C828   1.271       .  A
O819        C827   1.273       .  A
O820        C829   1.269       .  A
O821        C830   1.273       .  A
O822        C829   1.273       .  A
O823        C830   1.269       .  A
O824        C831   1.270       .  A
O825        C831   1.272       .  A
C826       C1174   1.479       .  S
C827       C1154   1.486       .  S
C828       C1204   1.468       .  S
C829       C1184   1.475       .  S
C830       C1194   1.468       .  S
C831       C1164   1.480       .  S
C832       C1240   1.526       .  S
C832        C835   1.544       .  S
C832       C1187   1.522       .  S
C833       C1241   1.529   1_545  S
C833        C838   1.543       .  S
C833       C1177   1.526       .  S
C834        C842   1.372       .  A
C834        C837   1.398       .  A
C835        C846   1.379       .  A
C836       C1236   1.526   1_545  S
C836        C850   1.374       .  A
C836        C839   1.404       .  A
C837       C1237   1.528       .  S
C837        C840   1.374       .  A
C838        C844   1.378       .  A
C839        C847   1.377       .  A
C840        N841   1.353       .  A
C840        H853   1.082       .  S
N841        C842   1.350       .  A
N841       C1197   1.429       .  S
C842        H843   1.082       .  S
C844        H854   1.080       .  S
N845       C1250   1.356   1_545  A
N845       C1144   1.437       .  S
C846       N1249   1.356       .  A
C846        H852   1.082       .  S
C847        N848   1.346       .  A
C847        H849   1.084       .  S
N848        C850   1.347       .  A
N848       C1207   1.421       .  S
C850        H851   1.081       .  S
Zn855       O860   1.997       .  S
Zn855       O864   2.009       .  S
Zn855      O1275   1.992   1_545  S
Zn856       O859   1.956       .  S
Zn856       O861   2.004       .  S
Zn856       O863   2.027       .  S
Zn856      O1271   2.011   1_545  S
Zn857       O859   1.953       .  S
Zn857       O865   1.982       .  S
Zn857       O868   2.021       .  S
Zn858      O1263   1.954       .  S
Zn858       O866   2.036       .  S
Zn858       O869   2.018       .  S
O859      Zn1262   1.954   1_545  S
O861        C873   1.275       .  A
O862        C874   1.271       .  A
O863        C872   1.274       .  A
O864        C874   1.271       .  A
O865        C873   1.271       .  A
O866       C1279   1.276       .  A
O867      Zn1260   2.011       .  S
O867        C876   1.272       .  A
O868        C875   1.272       .  A
O869        C876   1.272       .  A
O870        C877   1.273       .  A
O871      Zn1259   1.992       .  S
O871        C877   1.271       .  A
C872       C1147   1.484       .  S
C873       C1107   1.473       .  S
C874       C1117   1.464       .  S
C875       O1270   1.276   1_545  A
C875       C1094   1.493       .  S
C876       C1124   1.467       .  S
C877       C1134   1.454       .  S
C878        C880   1.525       .  S
C878        C882   1.532       .  S
C878        C881   1.546       .  S
C878       C1114   1.528       .  S
C879        C883   1.532       .  S
C879        C885   1.535       .  S
C879        C884   1.546       .  S
C879       C1127   1.531       .  S
C880        C888   1.372       .  A
C880        C883   1.394       .  A
C881        C892   1.380       .  A
C881        C884   1.397       .  A
C882        C896   1.374       .  A
C882        C885   1.407       .  A
C883        C886   1.375       .  A
C884        C890   1.379       .  A
C885        C893   1.379       .  A
C886        N887   1.356       .  A
C886        H899   1.082       .  S
N887        C888   1.354       .  A
N887       C1137   1.436       .  S
C888        H889   1.082       .  S
C890        N891   1.356       .  A
C890        H900   1.076       .  S
N891        C892   1.355       .  A
N891       C1167   1.439       .  S
C892        H898   1.078       .  S
C893        N894   1.352       .  A
C893        H895   1.081       .  S
N894        C896   1.348       .  A
N894       C1104   1.432       .  S
C896        H897   1.082       .  S
Zn901       O905   1.949   1_655  S
Zn901      O1310   1.996       .  S
Zn901       O910   1.999   1_565  S
Zn901       O917   2.030       .  S
Zn902      O1309   1.961       .  S
Zn902       O907   2.034       .  S
Zn902       O909   2.032   1_455  S
Zn903       O905   1.959   1_645  S
Zn903       O908   2.031       .  S
Zn903       O911   2.047       .  S
Zn904       O912   2.001   1_565  S
Zn904      O1319   1.993       .  S
Zn904       O916   2.016       .  S
O905      Zn1306   1.961       .  S
O906      Zn1305   1.998       .  S
O906        C918   1.273       .  A
O907       C1323   1.276       .  A
O908        C920   1.276       .  A
O909        C918   1.275       .  A
O910        C920   1.271       .  A
O911        C919   1.277   1_655  A
O912        C921   1.272       .  A
O913        C922   1.278       .  A
O914        C921   1.274       .  A
O915      Zn1308   1.992       .  S
O915        C922   1.271       .  A
O917        C923   1.274   1_655  A
C918       C1084   1.485       .  S
C919       O1311   1.276   1_545  A
C919       C1097   1.496   1_455  S
C920       C1077   1.477       .  S
C921       C1054   1.479       .  S
C922       C1067   1.485       .  S
C923       C1044   1.489       .  S
C924        C926   1.523       .  S
C924        C928   1.536       .  S
C924        C927   1.536       .  S
C924       C1064   1.531       .  S
C925        C929   1.553       .  S
C925        C931   1.556       .  S
C925        C930   1.540       .  S
C925       C1074   1.540       .  S
C926        C934   1.373       .  A
C926        C929   1.390       .  A
C927        C938   1.377       .  A
C927        C930   1.392       .  A
C928        C942   1.376       .  A
C928        C931   1.410       .  A
C929        C932   1.386       .  A
C930        C936   1.377       .  A
C931        C939   1.390       .  A
C932        N933   1.356       .  A
C932        H945   1.078       .  S
N933        C934   1.354       .  A
N933       C1087   1.437       .  S
C934        H935   1.083       .  S
C936        N937   1.361       .  A
C936        H946   1.083       .  S
N937        C938   1.361       .  A
N937       C1037   1.443       .  S
C938        H944   1.082       .  S
C939        N940   1.352       .  A
C939        H941   1.077       .  S
N940        C942   1.345       .  A
N940       C1057   1.432       .  S
C942        H943   1.084       .  S
C947       C1353   1.551   1_545  S
C947        C950   1.530       .  S
C947       C1017   1.538       .  S
C948       C1358   1.549       .  S
C948        C953   1.532       .  S
C948       C1004   1.538       .  S
C949       C1351   1.551       .  S
C949        C957   1.380       .  A
C949        C952   1.399       .  A
C950        C961   1.375       .  A
C951        C965   1.386       .  A
C951        C954   1.399       .  A
C952        C955   1.386       .  A
C953        C959   1.378       .  A
C954       C1352   1.550   1_545  S
C954        C962   1.380       .  A
C955        N956   1.356       .  A
C955        H968   1.080       .  S
N956        C957   1.354       .  A
N956       C1027   1.446       .  S
C957        H958   1.080       .  S
C959        H969   1.082       .  S
N960        C961   1.359   1_465  A
N960       C1047   1.440       .  S
C961        H967   1.083       .  S
C962        N963   1.355       .  A
C962        H964   1.080       .  S
N963        C965   1.356       .  A
N963        C997   1.445       .  S
C965        H966   1.077       .  S
Zn970       O974   1.951       .  S
Zn970       O975   2.008       .  S
Zn970       O979   2.013       .  S
Zn970       O986   2.017       .  S
Zn971       O974   1.959       .  S
Zn971       O976   2.036       .  S
Zn971       O978   2.031       .  S
Zn971       O982   2.019       .  S
Zn972       O974   1.950       .  S
Zn972       O977   2.026       .  S
Zn972       O980   2.006       .  S
Zn972       O983   2.018       .  S
Zn973       O974   1.952       .  S
Zn973       O981   2.028       .  S
Zn973       O984   2.025       .  S
Zn973       O985   2.015       .  S
O975        C987   1.274       .  A
O976        C988   1.276       .  A
O977        C989   1.276       .  A
O978        C987   1.278       .  A
O979        C989   1.271       .  A
O980        C988   1.272       .  A
O981        C990   1.276       .  A
O982        C991   1.272       .  A
O983        C990   1.275       .  A
O984        C991   1.276       .  A
O985        C992   1.273       .  A
O986        C992   1.274       .  A
C987       C1157   1.487       .  S
C988       C1014   1.476       .  S
C989        C994   1.487       .  S
C990       C1034   1.483       .  S
C991       C1024   1.489       .  S
C992       C1007   1.474       .  S
C993        C994   1.402       .  A
C993        C998   1.394       .  A
C993       H1000   1.082       .  S
C994        C995   1.413       .  A
C995        C996   1.404       .  A
C995       F1002   1.357       .  S
C996        C997   1.405       .  A
C996       H1001   1.083       .  S
C997        C998   1.412       .  A
C998        F999   1.356       .  S
C1003      C1004   1.411       .  A
C1003      C1008   1.398       .  A
C1003      H1010   1.080       .  S
C1004      C1005   1.411       .  A
C1005      C1006   1.399       .  A
C1005      F1012   1.354       .  S
C1006      C1007   1.401       .  A
C1006      H1011   1.085       .  S
C1007      C1008   1.402       .  A
C1008      F1009   1.358       .  S
C1013      C1014   1.402       .  A
C1013      C1018   1.401       .  A
C1013      H1020   1.083       .  S
C1014      C1015   1.404       .  A
C1015      C1016   1.397       .  A
C1015      F1022   1.358       .  S
C1016      C1017   1.408       .  A
C1016      H1021   1.079       .  S
C1017      C1018   1.410       .  A
C1018      F1019   1.355       .  S
C1023      C1024   1.403       .  A
C1023      C1028   1.394       .  A
C1023      H1030   1.083       .  S
C1024      C1025   1.413       .  A
C1025      C1026   1.404       .  A
C1025      F1032   1.357       .  S
C1026      C1027   1.405       .  A
C1026      H1031   1.082       .  S
C1027      C1028   1.412       .  A
C1028      F1029   1.356       .  S
C1033      C1034   1.406       .  A
C1033      C1038   1.401       .  A
C1033      H1040   1.084       .  S
C1034      C1035   1.407       .  A
C1035      C1036   1.398       .  A
C1035      F1042   1.357       .  S
C1036      C1037   1.405       .  A
C1036      H1041   1.083       .  S
C1037      C1038   1.409       .  A
C1038      F1039   1.357       .  S
C1043      C1048   1.400       .  A
C1043      H1050   1.082       .  S
C1044      C1449   1.410   1_455  A
C1045      C1448   1.411   1_655  A
C1045      C1046   1.399       .  A
C1045      F1052   1.357       .  S
C1046      C1451   1.403   1_655  A
C1046      H1051   1.082       .  S
C1047      C1450   1.403   1_455  A
C1048      F1049   1.357       .  S
C1053      C1054   1.405       .  A
C1053      C1058   1.391       .  A
C1053      H1060   1.085       .  S
C1054      C1055   1.412       .  A
C1055      C1056   1.398       .  A
C1055      F1062   1.358       .  S
C1056      C1057   1.402       .  A
C1056      H1061   1.085       .  S
C1057      C1058   1.402       .  A
C1058      F1059   1.357       .  S
C1063      C1064   1.413       .  A
C1063      C1068   1.394       .  A
C1063      H1070   1.078       .  S
C1064      C1065   1.409       .  A
C1065      C1066   1.400       .  A
C1065      F1072   1.357       .  S
C1066      C1067   1.409       .  A
C1066      H1071   1.081       .  S
C1067      C1068   1.403       .  A
C1068      F1069   1.358       .  S
C1073      C1074   1.408       .  A
C1073      C1078   1.398       .  A
C1073      H1080   1.077       .  S
C1074      C1075   1.412       .  A
C1075      C1076   1.399       .  A
C1075      F1082   1.353       .  S
C1076      C1077   1.401       .  A
C1076      H1081   1.081       .  S
C1077      C1078   1.406       .  A
C1078      F1079   1.357       .  S
C1083      C1084   1.406       .  A
C1083      C1088   1.392       .  A
C1083      H1090   1.083       .  S
C1084      C1085   1.412       .  A
C1085      C1086   1.403       .  A
C1085      F1092   1.357       .  S
C1086      C1087   1.404       .  A
C1086      H1091   1.082       .  S
C1087      C1088   1.406       .  A
C1088      F1089   1.357       .  S
C1093      C1498   1.405       .  A
C1093      C1098   1.400   1_556  A
C1093      H1100   1.083       .  S
C1094      C1497   1.405   1_545  A
C1095      C1096   1.405   1_556  A
C1095      F1102   1.358       .  S
C1096      C1097   1.408       .  A
C1096      H1101   1.083       .  S
C1098      F1099   1.357       .  S
C1103      C1104   1.400       .  A
C1103      C1108   1.393       .  A
C1103      H1110   1.083       .  S
C1104      C1105   1.408       .  A
C1105      C1106   1.391       .  A
C1105      F1112   1.356       .  S
C1106      C1107   1.403       .  A
C1106      H1111   1.083       .  S
C1107      C1108   1.410       .  A
C1108      F1109   1.358       .  S
C1113      C1114   1.409       .  A
C1113      C1118   1.397       .  A
C1113      H1120   1.080       .  S
C1114      C1115   1.415       .  A
C1115      C1116   1.395       .  A
C1115      F1122   1.357       .  S
C1116      C1117   1.397       .  A
C1116      H1121   1.084       .  S
C1117      C1118   1.401       .  A
C1118      F1119   1.358       .  S
C1123      C1124   1.399       .  A
C1123      C1128   1.399       .  A
C1123      H1130   1.082       .  S
C1124      C1125   1.400       .  A
C1125      C1126   1.397       .  A
C1125      F1132   1.358       .  S
C1126      C1127   1.409       .  A
C1126      H1131   1.064       .  S
C1127      C1128   1.414       .  A
C1128      F1129   1.357       .  S
C1133      C1134   1.397       .  A
C1133      C1138   1.392       .  A
C1133      H1140   1.083       .  S
C1134      C1135   1.400       .  A
C1135      C1136   1.395       .  A
C1135      F1142   1.358       .  S
C1136      C1137   1.408       .  A
C1136      H1141   1.082       .  S
C1137      C1138   1.408       .  A
C1138      F1139   1.356       .  S
C1143      C1148   1.396       .  A
C1143      H1150   1.084       .  S
C1144      C1549   1.406       .  A
C1145      C1548   1.406       .  A
C1145      C1146   1.398       .  A
C1145      F1152   1.357       .  S
C1146      C1551   1.406       .  A
C1146      H1151   1.084       .  S
C1147      C1550   1.406       .  A
C1148      F1149   1.357       .  S
C1153      C1154   1.405       .  A
C1153      C1158   1.397       .  A
C1153      H1160   1.083       .  S
C1154      C1155   1.410       .  A
C1155      C1156   1.399       .  A
C1155      F1162   1.357       .  S
C1156      C1157   1.406       .  A
C1156      H1161   1.083       .  S
C1157      C1158   1.411       .  A
C1158      F1159   1.358       .  S
C1163      C1164   1.407       .  A
C1163      C1168   1.398       .  A
C1163      H1170   1.082       .  S
C1164      C1165   1.409       .  A
C1165      C1166   1.393       .  A
C1165      F1172   1.358       .  S
C1166      C1167   1.404       .  A
C1166      H1171   1.081       .  S
C1167      C1168   1.407       .  A
C1168      F1169   1.357       .  S
C1173      C1174   1.402       .  A
C1173      C1178   1.393       .  A
C1173      H1180   1.083       .  S
C1174      C1175   1.408       .  A
C1175      C1176   1.396       .  A
C1175      F1182   1.358       .  S
C1176      C1177   1.407       .  A
C1176      H1181   1.081       .  S
C1177      C1178   1.413       .  A
C1178      F1179   1.356       .  S
C1183      C1184   1.401       .  A
C1183      C1188   1.393       .  A
C1183      H1190   1.084       .  S
C1184      C1185   1.408       .  A
C1185      C1186   1.394       .  A
C1185      F1192   1.358       .  S
C1186      C1187   1.405       .  A
C1186      H1191   1.078       .  S
C1187      C1188   1.413       .  A
C1188      F1189   1.357       .  S
C1193      C1194   1.403       .  A
C1193      C1198   1.390       .  A
C1193      H1200   1.083       .  S
C1194      C1195   1.409       .  A
C1195      C1196   1.391       .  A
C1195      F1202   1.358       .  S
C1196      C1197   1.402       .  A
C1196      H1201   1.082       .  S
C1197      C1198   1.404       .  A
C1198      F1199   1.357       .  S
C1203      C1204   1.406       .  A
C1203      C1208   1.389       .  A
C1203      H1210   1.084       .  S
C1204      C1205   1.409       .  A
C1205      C1206   1.391       .  A
C1205      F1212   1.358       .  S
C1206      C1207   1.398       .  A
C1206      H1211   1.083       .  S
C1207      C1208   1.400       .  A
C1208      F1209   1.357       .  S
Zn1213     O1217   1.946       .  S
Zn1213     O1218   1.998       .  S
Zn1213     O1222   1.977       .  S
Zn1213     O1229   2.012       .  S
Zn1214     O1217   1.945       .  S
Zn1214     O1219   2.019       .  S
Zn1214     O1221   2.005       .  S
Zn1214     O1225   1.997       .  S
Zn1215     O1217   1.949       .  S
Zn1215     O1220   1.992       .  S
Zn1215     O1223   2.011       .  S
Zn1215     O1226   2.013       .  S
Zn1216     O1217   1.936       .  S
Zn1216     O1224   1.987       .  S
Zn1216     O1227   1.973       .  S
Zn1216     O1228   1.993       .  S
O1218      C1230   1.270       .  A
O1219      C1231   1.273       .  A
O1220      C1232   1.272       .  A
O1221      C1230   1.273       .  A
O1222      C1232   1.271       .  A
O1223      C1231   1.273       .  A
O1224      C1233   1.269       .  A
O1225      C1234   1.273       .  A
O1226      C1233   1.273       .  A
O1227      C1234   1.269       .  A
O1228      C1235   1.270       .  A
O1229      C1235   1.272       .  A
C1230      C1578   1.478       .  S
C1231      C1558   1.486       .  S
C1232      C1608   1.470       .  S
C1233      C1588   1.476       .  S
C1234      C1598   1.469       .  S
C1235      C1568   1.480       .  S
C1236      C1239   1.545       .  S
C1236      C1591   1.523       .  S
C1237      C1242   1.542       .  S
C1237      C1581   1.525       .  S
C1238      C1246   1.372       .  A
C1238      C1241   1.397       .  A
C1239      C1250   1.380       .  A
C1240      C1254   1.375       .  A
C1240      C1243   1.403       .  A
C1241      C1244   1.375       .  A
C1242      C1248   1.378       .  A
C1243      C1251   1.376       .  A
C1244      N1245   1.354       .  A
C1244      H1257   1.082       .  S
N1245      C1246   1.350       .  A
N1245      C1601   1.430       .  S
C1246      H1247   1.082       .  S
C1248      H1258   1.080       .  S
N1249      C1548   1.436       .  S
C1250      H1256   1.082       .  S
C1251      N1252   1.347       .  A
C1251      H1253   1.084       .  S
N1252      C1254   1.348       .  A
N1252      C1611   1.423       .  S
C1254      H1255   1.081       .  S
Zn1259     O1264   1.997       .  S
Zn1259     O1268   2.007       .  S
Zn1260     O1263   1.956       .  S
Zn1260     O1265   2.003       .  S
Zn1260     O1267   2.025       .  S
Zn1261     O1263   1.953       .  S
Zn1261     O1269   1.981       .  S
Zn1261     O1272   2.020       .  S
Zn1262     O1270   2.033       .  S
Zn1262     O1273   2.015       .  S
O1265      C1277   1.275       .  A
O1266      C1278   1.271       .  A
O1267      C1276   1.273       .  A
O1268      C1278   1.271       .  A
O1269      C1277   1.271       .  A
O1271      C1280   1.272       .  A
O1272      C1279   1.272       .  A
O1273      C1280   1.272       .  A
O1274      C1281   1.273       .  A
O1275      C1281   1.271       .  A
C1276      C1551   1.484       .  S
C1277      C1511   1.473       .  S
C1278      C1521   1.463       .  S
C1279      C1498   1.493       .  S
C1280      C1528   1.466       .  S
C1281      C1538   1.453       .  S
C1282      C1284   1.524       .  S
C1282      C1286   1.531       .  S
C1282      C1285   1.546       .  S
C1282      C1518   1.527       .  S
C1283      C1287   1.531       .  S
C1283      C1289   1.534       .  S
C1283      C1288   1.545       .  S
C1283      C1531   1.530       .  S
C1284      C1292   1.373       .  A
C1284      C1287   1.395       .  A
C1285      C1296   1.380       .  A
C1285      C1288   1.397       .  A
C1286      C1300   1.374       .  A
C1286      C1289   1.406       .  A
C1287      C1290   1.375       .  A
C1288      C1294   1.379       .  A
C1289      C1297   1.378       .  A
C1290      N1291   1.355       .  A
C1290      H1303   1.082       .  S
N1291      C1292   1.354       .  A
N1291      C1541   1.435       .  S
C1292      H1293   1.082       .  S
C1294      N1295   1.356       .  A
C1294      H1304   1.078       .  S
N1295      C1296   1.355       .  A
N1295      C1571   1.438       .  S
C1296      H1302   1.078       .  S
C1297      N1298   1.352       .  A
C1297      H1299   1.081       .  S
N1298      C1300   1.348       .  A
N1298      C1508   1.431       .  S
C1300      H1301   1.082       .  S
Zn1305     O1309   1.948   1_655  S
Zn1305     O1314   1.999       .  S
Zn1305     O1321   2.029       .  S
Zn1306     O1311   2.032       .  S
Zn1306     O1313   2.028   1_455  S
Zn1307     O1309   1.959   1_655  S
Zn1307     O1312   2.031       .  S
Zn1307     O1315   2.047       .  S
Zn1308     O1316   2.003       .  S
Zn1308     O1320   2.016       .  S
O1310      C1322   1.273       .  A
O1312      C1324   1.276       .  A
O1313      C1322   1.275       .  A
O1314      C1324   1.271       .  A
O1315      C1323   1.277   1_655  A
O1316      C1325   1.272       .  A
O1317      C1326   1.277       .  A
O1318      C1325   1.274       .  A
O1319      C1326   1.271       .  A
O1321      C1327   1.274   1_655  A
C1322      C1488   1.484       .  S
C1323      C1501   1.495   1_455  S
C1324      C1481   1.477       .  S
C1325      C1458   1.481       .  S
C1326      C1471   1.486       .  S
C1327      C1448   1.489       .  S
C1328      C1330   1.522       .  S
C1328      C1332   1.537       .  S
C1328      C1331   1.536       .  S
C1328      C1468   1.531       .  S
C1329      C1333   1.553       .  S
C1329      C1335   1.556       .  S
C1329      C1334   1.540       .  S
C1329      C1478   1.540       .  S
C1330      C1338   1.372       .  A
C1330      C1333   1.390       .  A
C1331      C1342   1.378       .  A
C1331      C1334   1.392       .  A
C1332      C1346   1.376       .  A
C1332      C1335   1.410       .  A
C1333      C1336   1.386       .  A
C1334      C1340   1.378       .  A
C1335      C1343   1.390       .  A
C1336      N1337   1.356       .  A
C1336      H1349   1.078       .  S
N1337      C1338   1.353       .  A
N1337      C1491   1.437       .  S
C1338      H1339   1.082       .  S
C1340      N1341   1.360       .  A
C1340      H1350   1.082       .  S
N1341      C1342   1.360       .  A
N1341      C1441   1.442       .  S
C1342      H1348   1.083       .  S
C1343      N1344   1.352       .  A
C1343      H1345   1.077       .  S
N1344      C1346   1.345       .  A
N1344      C1461   1.432       .  S
C1346      H1347   1.084       .  S
C1351      C1354   1.531       .  S
C1351      C1421   1.539       .  S
C1352      C1357   1.533       .  S
C1352      C1408   1.538       .  S
C1353      C1361   1.381       .  A
C1353      C1356   1.399       .  A
C1354      C1365   1.376       .  A
C1355      C1369   1.386       .  A
C1355      C1358   1.398       .  A
C1356      C1359   1.387       .  A
C1357      C1363   1.379       .  A
C1358      C1366   1.379       .  A
C1359      N1360   1.356       .  A
C1359      H1372   1.080       .  S
N1360      C1361   1.354       .  A
N1360      C1431   1.445       .  S
C1361      H1362   1.080       .  S
C1363      H1373   1.082       .  S
N1364      C1365   1.359   1_455  A
N1364      C1451   1.440       .  S
C1365      H1371   1.083       .  S
C1366      N1367   1.355       .  A
C1366      H1368   1.080       .  S
N1367      C1369   1.356       .  A
N1367      C1401   1.445       .  S
C1369      H1370   1.077       .  S
Zn1374     O1378   1.953       .  S
Zn1374     O1379   2.011       .  S
Zn1374     O1383   2.015       .  S
Zn1374     O1390   2.019       .  S
Zn1375     O1378   1.958       .  S
Zn1375     O1380   2.037       .  S
Zn1375     O1382   2.027       .  S
Zn1375     O1386   2.016       .  S
Zn1376     O1378   1.950       .  S
Zn1376     O1381   2.024       .  S
Zn1376     O1384   2.007       .  S
Zn1376     O1387   2.019       .  S
Zn1377     O1378   1.953       .  S
Zn1377     O1385   2.030       .  S
Zn1377     O1388   2.028       .  S
Zn1377     O1389   2.016       .  S
O1379      C1391   1.275       .  A
O1380      C1392   1.276       .  A
O1381      C1393   1.276       .  A
O1382      C1391   1.277       .  A
O1383      C1393   1.272       .  A
O1384      C1392   1.272       .  A
O1385      C1394   1.277       .  A
O1386      C1395   1.272       .  A
O1387      C1394   1.275       .  A
O1388      C1395   1.277       .  A
O1389      C1396   1.273       .  A
O1390      C1396   1.274       .  A
C1391      C1561   1.486       .  S
C1392      C1418   1.477       .  S
C1393      C1398   1.487       .  S
C1394      C1438   1.485       .  S
C1395      C1428   1.489       .  S
C1396      C1411   1.474       .  S
C1397      C1398   1.403       .  A
C1397      C1402   1.394       .  A
C1397      H1404   1.082       .  S
C1398      C1399   1.413       .  A
C1399      C1400   1.404       .  A
C1399      F1406   1.357       .  S
C1400      C1401   1.405       .  A
C1400      H1405   1.082       .  S
C1401      C1402   1.412       .  A
C1402      F1403   1.356       .  S
C1407      C1408   1.410       .  A
C1407      C1412   1.398       .  A
C1407      H1414   1.080       .  S
C1408      C1409   1.412       .  A
C1409      C1410   1.399       .  A
C1409      F1416   1.354       .  S
C1410      C1411   1.401       .  A
C1410      H1415   1.085       .  S
C1411      C1412   1.403       .  A
C1412      F1413   1.358       .  S
C1417      C1418   1.403       .  A
C1417      C1422   1.402       .  A
C1417      H1424   1.084       .  S
C1418      C1419   1.404       .  A
C1419      C1420   1.397       .  A
C1419      F1426   1.358       .  S
C1420      C1421   1.408       .  A
C1420      H1425   1.080       .  S
C1421      C1422   1.411       .  A
C1422      F1423   1.355       .  S
C1427      C1428   1.403       .  A
C1427      C1432   1.394       .  A
C1427      H1434   1.083       .  S
C1428      C1429   1.414       .  A
C1429      C1430   1.404       .  A
C1429      F1436   1.357       .  S
C1430      C1431   1.404       .  A
C1430      H1435   1.082       .  S
C1431      C1432   1.411       .  A
C1432      F1433   1.357       .  S
C1437      C1438   1.407       .  A
C1437      C1442   1.401       .  A
C1437      H1444   1.084       .  S
C1438      C1439   1.408       .  A
C1439      C1440   1.399       .  A
C1439      F1446   1.357       .  S
C1440      C1441   1.405       .  A
C1440      H1445   1.083       .  S
C1441      C1442   1.408       .  A
C1442      F1443   1.357       .  S
C1447      C1452   1.400       .  A
C1447      H1454   1.082       .  S
C1449      C1450   1.399       .  A
C1449      F1456   1.357       .  S
C1450      H1455   1.082       .  S
C1452      F1453   1.357       .  S
C1457      C1458   1.405       .  A
C1457      C1462   1.392       .  A
C1457      H1464   1.084       .  S
C1458      C1459   1.412       .  A
C1459      C1460   1.398       .  A
C1459      F1466   1.358       .  S
C1460      C1461   1.402       .  A
C1460      H1465   1.085       .  S
C1461      C1462   1.402       .  A
C1462      F1463   1.357       .  S
C1467      C1468   1.413       .  A
C1467      C1472   1.395       .  A
C1467      H1474   1.077       .  S
C1468      C1469   1.409       .  A
C1469      C1470   1.400       .  A
C1469      F1476   1.357       .  S
C1470      C1471   1.409       .  A
C1470      H1475   1.081       .  S
C1471      C1472   1.404       .  A
C1472      F1473   1.358       .  S
C1477      C1478   1.408       .  A
C1477      C1482   1.398       .  A
C1477      H1484   1.078       .  S
C1478      C1479   1.412       .  A
C1479      C1480   1.398       .  A
C1479      F1486   1.352       .  S
C1480      C1481   1.401       .  A
C1480      H1485   1.082       .  S
C1481      C1482   1.406       .  A
C1482      F1483   1.357       .  S
C1487      C1488   1.406       .  A
C1487      C1492   1.392       .  A
C1487      H1494   1.083       .  S
C1488      C1489   1.411       .  A
C1489      C1490   1.402       .  A
C1489      F1496   1.357       .  S
C1490      C1491   1.403       .  A
C1490      H1495   1.082       .  S
C1491      C1492   1.406       .  A
C1492      F1493   1.357       .  S
C1497      C1502   1.399   1_556  A
C1497      H1504   1.083       .  S
C1499      C1500   1.405   1_556  A
C1499      F1506   1.358       .  S
C1500      C1501   1.408       .  A
C1500      H1505   1.083   1_655  S
C1502      F1503   1.357       .  S
C1507      C1508   1.400       .  A
C1507      C1512   1.392       .  A
C1507      H1514   1.083       .  S
C1508      C1509   1.407       .  A
C1509      C1510   1.391       .  A
C1509      F1516   1.356       .  S
C1510      C1511   1.403       .  A
C1510      H1515   1.083       .  S
C1511      C1512   1.410       .  A
C1512      F1513   1.358       .  S
C1517      C1518   1.409       .  A
C1517      C1522   1.396       .  A
C1517      H1524   1.080       .  S
C1518      C1519   1.414       .  A
C1519      C1520   1.395       .  A
C1519      F1526   1.357       .  S
C1520      C1521   1.397       .  A
C1520      H1525   1.084       .  S
C1521      C1522   1.400       .  A
C1522      F1523   1.358       .  S
C1527      C1528   1.399       .  A
C1527      C1532   1.399       .  A
C1527      H1534   1.082       .  S
C1528      C1529   1.400       .  A
C1529      C1530   1.396       .  A
C1529      F1536   1.358       .  S
C1530      C1531   1.408       .  A
C1530      H1535   1.067       .  S
C1531      C1532   1.415       .  A
C1532      F1533   1.357       .  S
C1537      C1538   1.397       .  A
C1537      C1542   1.392       .  A
C1537      H1544   1.083       .  S
C1538      C1539   1.400       .  A
C1539      C1540   1.395       .  A
C1539      F1546   1.358       .  S
C1540      C1541   1.407       .  A
C1540      H1545   1.082       .  S
C1541      C1542   1.407       .  A
C1542      F1543   1.356       .  S
C1547      C1552   1.396       .  A
C1547      H1554   1.084       .  S
C1549      C1550   1.399       .  A
C1549      F1556   1.357   1_545  S
C1550      H1555   1.084       .  S
C1552      F1553   1.357       .  S
C1557      C1558   1.406       .  A
C1557      C1562   1.397       .  A
C1557      H1564   1.083       .  S
C1558      C1559   1.410       .  A
C1559      C1560   1.399       .  A
C1559      F1566   1.357       .  S
C1560      C1561   1.406       .  A
C1560      H1565   1.083       .  S
C1561      C1562   1.410       .  A
C1562      F1563   1.358       .  S
C1567      C1568   1.406       .  A
C1567      C1572   1.398       .  A
C1567      H1574   1.082       .  S
C1568      C1569   1.409       .  A
C1569      C1570   1.393       .  A
C1569      F1576   1.358       .  S
C1570      C1571   1.403       .  A
C1570      H1575   1.081       .  S
C1571      C1572   1.407       .  A
C1572      F1573   1.357       .  S
C1577      C1578   1.402       .  A
C1577      C1582   1.392       .  A
C1577      H1584   1.083       .  S
C1578      C1579   1.408       .  A
C1579      C1580   1.396       .  A
C1579      F1586   1.358       .  S
C1580      C1581   1.407       .  A
C1580      H1585   1.081       .  S
C1581      C1582   1.413       .  A
C1582      F1583   1.356       .  S
C1587      C1588   1.401       .  A
C1587      C1592   1.394       .  A
C1587      H1594   1.084       .  S
C1588      C1589   1.408       .  A
C1589      C1590   1.394       .  A
C1589      F1596   1.358       .  S
C1590      C1591   1.405       .  A
C1590      H1595   1.078       .  S
C1591      C1592   1.413       .  A
C1592      F1593   1.357       .  S
C1597      C1598   1.403       .  A
C1597      C1602   1.391       .  A
C1597      H1604   1.083       .  S
C1598      C1599   1.409       .  A
C1599      C1600   1.391       .  A
C1599      F1606   1.358       .  S
C1600      C1601   1.402       .  A
C1600      H1605   1.082       .  S
C1601      C1602   1.405       .  A
C1602      F1603   1.357       .  S
C1607      C1608   1.406       .  A
C1607      C1612   1.389       .  A
C1607      H1614   1.084       .  S
C1608      C1609   1.409       .  A
C1609      C1610   1.392       .  A
C1609      F1616   1.358       .  S
C1610      C1611   1.398       .  A
C1610      H1615   1.083       .  S
C1611      C1612   1.400       .  A
C1612      F1613   1.357       .  S
