geometry optimzed in LAMMPS
_audit_creation_date              2020-11-30 
_audit_creation_method            'lammps2cif' 
_symmetry_space_group_name_H-M    'P1' 
_symmetry_Int_Tables_number       1 
_symmetry_cell_setting            triclinic 
loop_ 
_symmetry_equiv_pos_as_xyz 
  x,y,z 
_cell_length_a                    40.43687584 
_cell_length_b                    40.364794520851234 
_cell_length_c                    40.34393848733574 
_cell_angle_alpha                 89.95631101266909 
_cell_angle_beta                  90.09485745242883 
_cell_angle_gamma                 89.96763259386991 
loop_ 
_atom_site_label 
_atom_site_type_symbol 
_atom_site_fract_x 
_atom_site_fract_y 
_atom_site_fract_z 
_atom_site_charge 
O1          O  0.88230758  0.91400242  0.65965437    -0.82000
C2          C  0.81095550  0.79918871  0.62290499     0.97400
O3          O  0.80436652  0.82850332  0.61397889    -0.71100
O4          O  0.79888130  0.86718762  0.66510263    -0.74700
Al5        Al  0.82354534  0.87033271  0.62559622     1.49000
C6          C  0.80660282  0.87789559  0.69339524     0.92600
O7          O  0.87296222  0.83286107  0.70534870    -0.80900
O8          O  0.91934840  0.83945870  0.62050825    -0.74500
Al9        Al  0.87696606  0.87233569  0.68039167     1.90100
O10         O  0.89286742  0.79887065  0.66835288    -0.73600
O11         O  0.86846329  0.82729267  0.58195025    -0.73400
O12         O  0.83970454  0.79175118  0.63246811    -0.79100
O13         O  0.84387049  0.87543577  0.58352321    -0.77300
O14         O  0.85972968  0.85355588  0.64427832    -1.13400
O15         O  0.83461397  0.91554880  0.63375758    -0.72600
C16         C  0.85984616  0.93009325  0.64510079     0.98100
C17         C  0.88373225  0.80462986  0.69767678     0.94500
Al18       Al  0.87855917  0.81746358  0.62716960     1.55600
O19         O  0.83612619  0.88535556  0.69985312    -0.77200
C20         C  0.85803463  0.85285809  0.56729360     0.98700
C21         C  0.93559858  0.85438778  0.64266596     0.93600
O22         O  0.92181803  0.86368093  0.66909601    -0.82500
O23         O  0.67292046  0.88047792  0.90596763    -0.82000
C24         C  0.62877444  0.80623655  0.79455446     0.97400
O25         O  0.62380446  0.80004941  0.82473961    -0.71100
O26         O  0.67781363  0.79600451  0.85982138    -0.74700
Al27       Al  0.63802327  0.82049470  0.86480743     1.49000
C28         C  0.70666688  0.80436173  0.86831590     0.92600
O29         O  0.71547131  0.87165899  0.82361479    -0.80900
O30         O  0.63189686  0.91678108  0.82972239    -0.74500
Al31       Al  0.69190232  0.87495806  0.86353773     1.90100
O32         O  0.67651505  0.88588053  0.78853050    -0.73600
O33         O  0.59207246  0.86655387  0.82406266    -0.73400
O34         O  0.63795112  0.83460410  0.78554240    -0.79100
O35         O  0.59609686  0.84062697  0.87163360    -0.77300
O36         O  0.65532554  0.85672494  0.84617389    -1.13400
O37         O  0.64821358  0.83237371  0.90928807    -0.72600
C38         C  0.65890453  0.85837547  0.92285476     0.98100
C39         C  0.70639407  0.87955533  0.79485935     0.94500
Al40       Al  0.63626557  0.87447289  0.81018800     1.55600
O41         O  0.71282095  0.83410575  0.87564979    -0.77200
C42         C  0.57896482  0.85576968  0.85029717     0.98700
C43         C  0.65370066  0.93344836  0.84444440     0.93600
O44         O  0.67960808  0.91972306  0.85513522    -0.82500
O45         O  0.91903303  0.66494319  0.87019914    -0.82000
C46         C  0.80542007  0.62499327  0.79848153     0.97400
O47         O  0.83500624  0.61770443  0.79169626    -0.71100
O48         O  0.87341353  0.66905790  0.78510665    -0.74700
Al49       Al  0.87633338  0.63005835  0.81122933     1.49000
C50         C  0.88362180  0.69744949  0.79292052     0.92600
O51         O  0.83796808  0.71100585  0.85880038    -0.80900
O52         O  0.84361832  0.62821261  0.90835012    -0.74500
Al53       Al  0.87740675  0.68584683  0.86374793     1.90100
O54         O  0.80313136  0.67399644  0.87748811    -0.73600
O55         O  0.83446965  0.58714173  0.85921877    -0.73400
O56         O  0.79750442  0.63437349  0.82710930    -0.79100
O57         O  0.88152263  0.58850159  0.83267037    -0.77300
O58         O  0.85888412  0.64934497  0.84708254    -1.13400
O59         O  0.92133335  0.63883332  0.82274191    -0.72600
C60         C  0.93559530  0.65026741  0.84817081     0.98100
C61         C  0.80937051  0.70334177  0.86863971     0.94500
Al62       Al  0.82288920  0.63232055  0.86637063     1.55600
O63         O  0.89080476  0.70416368  0.82254581    -0.77200
C64         C  0.85996847  0.57259415  0.84861017     0.98700
C65         C  0.85781652  0.65108088  0.92412912     0.93600
O66         O  0.86818881  0.67627960  0.90898760    -0.82500
O67         O  0.67063208  0.62784227  0.58509207    -0.82000
C68         C  0.62877952  0.69979555  0.69847110     0.97400
O69         O  0.62131925  0.70608455  0.66869126    -0.71100
O70         O  0.67528203  0.71134139  0.63351572    -0.74700
Al71       Al  0.63581359  0.68675786  0.62771675     1.49000
C72         C  0.70406752  0.70311293  0.62484887     0.92600
O73         O  0.71305213  0.63457179  0.66811960    -0.80900
O74         O  0.62858059  0.59074905  0.66054028    -0.74500
Al75       Al  0.68949619  0.63226364  0.62793976     1.90100
O76         O  0.67479067  0.61800236  0.70238241    -0.73600
O77         O  0.59026753  0.64191842  0.66867388    -0.73400
O78         O  0.63885426  0.67136147  0.70634522    -0.79100
O79         O  0.59425569  0.66611104  0.62021247    -0.77300
O80         O  0.65328783  0.65022882  0.64553503    -1.13400
O81         O  0.64659202  0.67624847  0.58271312    -0.72600
C82         C  0.65762736  0.65073670  0.56836303     0.98100
C83         C  0.70462337  0.62472662  0.69648278     0.94500
Al84       Al  0.63464474  0.63208175  0.68132779     1.55600
O85         O  0.71040108  0.67343976  0.61711824    -0.77200
C86         C  0.57709994  0.65179196  0.64203635     0.98700
C87         C  0.65032444  0.57401393  0.64578093     0.93600
O88         O  0.67651995  0.58745310  0.63541583    -0.82500
O89         O  0.87543330  0.16721459  0.58654466    -0.82000
C90         C  0.80405982  0.12542676  0.69959238     0.97400
O91         O  0.79729475  0.11831341  0.66988661    -0.71100
O92         O  0.79184624  0.17049481  0.63308646    -0.74700
Al93       Al  0.81694572  0.13117127  0.62871037     1.49000
C94         C  0.79968653  0.19937177  0.62441385     0.92600
O95         O  0.86719742  0.20979216  0.66897106    -0.80900
O96         O  0.91386080  0.12599983  0.66068853    -0.74500
Al97       Al  0.87033496  0.18615017  0.62888367     1.90100
O98         O  0.88561550  0.17153834  0.70255090    -0.73600
O99         O  0.86314060  0.08670702  0.67008191    -0.73400
O100        O  0.83285890  0.13422228  0.70782237    -0.79100
O101        O  0.83749482  0.08923965  0.62244068    -0.77300
O102        O  0.85319401  0.14938749  0.64648421    -1.13400
O103        O  0.82829838  0.14064543  0.58364140    -0.75800
C104        C  0.85360511  0.15262036  0.56979126     0.98100
C105        C  0.87832255  0.20134266  0.69688301     0.94500
Al106      Al  0.87217691  0.13108632  0.68214679     1.55600
O107        O  0.82925430  0.20610953  0.61725647    -0.77200
C108        C  0.85274307  0.07274979  0.64415536     0.98700
C109        C  0.92981535  0.14858894  0.64607256     0.93600
O110        O  0.91534058  0.17461743  0.63665202    -0.82500
O111        O  0.88035872  0.33547326  0.90930590    -0.82000
C112        C  0.80836716  0.37823029  0.79662269     0.97400
O113        O  0.80220088  0.38525237  0.82640409    -0.71100
O114        O  0.79697780  0.33180265  0.86178272    -0.74700
Al115      Al  0.82172494  0.37109622  0.86696594     1.49000
C116        C  0.80530039  0.30286981  0.86999195     0.92600
O117        O  0.87379572  0.29319931  0.82646806    -0.80900
O118        O  0.91732647  0.37779366  0.83413527    -0.74500
Al119      Al  0.87594204  0.31682463  0.86650876     1.90100
O120        O  0.88951582  0.33206503  0.79223873    -0.73600
O121        O  0.86675403  0.41675424  0.82599008    -0.73400
O122        O  0.83676558  0.36893743  0.78792962    -0.79100
O123        O  0.84227905  0.41277220  0.87419223    -0.77300
O124        O  0.85796623  0.35337036  0.84893662    -1.13400
O125        O  0.83250355  0.36052075  0.91150030    -0.72600
C126        C  0.85778427  0.34912322  0.92579418     0.98100
C127        C  0.88315428  0.30208590  0.79814452     0.94500
Al128      Al  0.87607520  0.37229375  0.81321761     1.55600
O129        O  0.83492945  0.29598607  0.87705618    -0.77200
C130        C  0.85663947  0.42996020  0.85244740     0.98700
C131        C  0.93400990  0.35600622  0.84899690     0.93600
O132        O  0.92060950  0.32972105  0.85921148    -0.82500
O133        O  0.62779450  0.16861741  0.91183512    -0.82000
C134        C  0.69980539  0.12959739  0.79822505     0.97400
O135        O  0.70622014  0.12091452  0.82763264    -0.71100
O136        O  0.71190058  0.17299811  0.86493565    -0.74700
Al137      Al  0.68681253  0.13391896  0.86909739     1.49000
C138        C  0.70470308  0.20151990  0.87526769     0.92600
O139        O  0.63854505  0.21381711  0.83097864    -0.80900
O140        O  0.59017382  0.13039577  0.83743537    -0.74500
Al141      Al  0.63397042  0.18928558  0.87038198     1.90100
O142        O  0.61880494  0.17664755  0.79691746    -0.73600
O143        O  0.64066234  0.09068835  0.82710591    -0.73400
O144        O  0.67113801  0.13946804  0.79074600    -0.79100
O145        O  0.66595633  0.09218755  0.87499256    -0.77300
O146        O  0.65075366  0.15279217  0.85199228    -1.13400
O147        O  0.67567535  0.14323401  0.91400290    -0.72600
C148        C  0.65003194  0.15410902  0.92818478     0.98100
C149        C  0.62741670  0.20604487  0.80290181     0.94500
Al150      Al  0.63179458  0.13560789  0.81613184     1.55600
O151        O  0.67540141  0.20821077  0.88358460    -0.77200
C152        C  0.65133762  0.07605649  0.85261618     0.98700
C153        C  0.57402445  0.15341758  0.85113796     0.93600
O154        O  0.58869939  0.17909841  0.86118652    -0.82500
O155        O  0.62873573  0.34101723  0.58801319    -0.82000
C156        C  0.70021027  0.37680398  0.70287440     0.97400
O157        O  0.70582011  0.38685884  0.67380399    -0.71100
O158        O  0.71203400  0.33475971  0.63650061    -0.74700
Al159      Al  0.68703436  0.37409121  0.63230651     1.49000
C160        C  0.70416273  0.30632306  0.62638537     0.92600
O161        O  0.63620015  0.29387036  0.66862799    -0.80900
O162        O  0.59122401  0.37918351  0.66381617    -0.74500
Al163      Al  0.63344270  0.31966398  0.62958657     1.90100
O164        O  0.61809041  0.33120015  0.70337148    -0.73600
O165        O  0.64253701  0.41702290  0.67558410    -0.73400
O166        O  0.67187243  0.36617284  0.71047571    -0.79100
O167        O  0.66573476  0.41557183  0.62670561    -0.77300
O168        O  0.65086244  0.35526238  0.64894437    -1.13400
O169        O  0.67693039  0.36535807  0.58708173    -0.72600
C170        C  0.65143026  0.35527490  0.57215224     0.98100
C171        C  0.62565049  0.30166644  0.69687580     0.94500
Al172      Al  0.63245417  0.37205577  0.68525219     1.55600
O173        O  0.67478008  0.30013141  0.61767049    -0.77200
C174        C  0.65179593  0.43162243  0.64960442     0.98700
C175        C  0.57469164  0.35752686  0.64848071     0.93600
O176        O  0.58851655  0.33158082  0.63777785    -0.82500
O177        O  0.16898887  0.91808895  0.62152210    -0.82000
C178        C  0.12993626  0.80454392  0.69400747     0.97400
O179        O  0.12158474  0.83402155  0.69970122    -0.71100
O180        O  0.17404764  0.87109785  0.70624834    -0.74700
Al181      Al  0.13478538  0.87489914  0.68035493     1.49000
C182        C  0.20265646  0.88098001  0.69869740     0.92600
O183        O  0.21561227  0.83732431  0.63220430    -0.80900
O184        O  0.13207140  0.84185394  0.58405211    -0.74500
Al185      Al  0.19019673  0.87652101  0.62779495     1.90100
O186        O  0.17886797  0.80234145  0.61361731    -0.73600
O187        O  0.09291361  0.83155679  0.63431325    -0.73400
O188        O  0.14129727  0.79657718  0.66596980    -0.79100
O189        O  0.09327750  0.87997058  0.65851986    -0.77300
O190        O  0.15411789  0.85761545  0.64464192    -1.13400
O191        O  0.14353628  0.91975224  0.66922609    -0.72600
C192        C  0.15367741  0.93417027  0.64342094     0.98100
C193        C  0.20818117  0.80881265  0.62188383     0.94500
Al194      Al  0.13762865  0.82119815  0.62605145     1.55600
O195        O  0.20890295  0.88957467  0.66927385    -0.77200
C196        C  0.07779921  0.85696991  0.64398179     0.98700
C197        C  0.15417355  0.85698799  0.56806789     0.93600
O198        O  0.17971242  0.86741938  0.58273667    -0.82500
O199        O  0.34381047  0.91711637  0.87167991    -0.82000
C200        C  0.38622349  0.80574600  0.79707159     0.97400
O201        O  0.39245810  0.83574583  0.79102015    -0.71100
O202        O  0.33916607  0.87259193  0.78554537    -0.74700
Al203      Al  0.37860042  0.87624332  0.81133545     1.49000
C204        C  0.31060338  0.88206253  0.79383866     0.92600
O205        O  0.29905488  0.83590113  0.85921112    -0.80900
O206        O  0.38247015  0.84127304  0.90740946    -0.74500
Al207      Al  0.32356481  0.87538178  0.86445619     1.90100
O208        O  0.33676176  0.80101394  0.87654261    -0.73600
O209        O  0.42262120  0.83390552  0.85755234    -0.73400
O210        O  0.37567587  0.79726166  0.82519517    -0.79100
O211        O  0.42021428  0.88204538  0.83273982    -0.77300
O212        O  0.36008324  0.85770750  0.84695824    -1.13400
O213        O  0.36881945  0.92059874  0.82376265    -0.72600
C214        C  0.35823026  0.93413650  0.84989428     0.98100
C215        C  0.30712750  0.80734323  0.86890351     0.94500
Al216      Al  0.37788864  0.82151134  0.86510064     1.55600
O217        O  0.30432574  0.88924563  0.82357536    -0.77200
C218        C  0.43661854  0.86006223  0.84776058     0.98700
C219        C  0.35977897  0.85500523  0.92369200     0.93600
O220        O  0.33409310  0.86529172  0.90922928    -0.82500
O221        O  0.17143321  0.59476265  0.87306797    -0.82000
C222        C  0.13104163  0.70694700  0.79882626     0.97400
O223        O  0.12489891  0.67709761  0.79234819    -0.71100
O224        O  0.17805953  0.64162674  0.78890376    -0.74700
Al225      Al  0.13818500  0.63676595  0.81257022     1.49000
C226        C  0.20644109  0.63210803  0.79752632     0.92600
O227        O  0.21485301  0.67727276  0.86464761    -0.80900
O228        O  0.13060794  0.67025845  0.90962041    -0.74500
Al229      Al  0.19111694  0.63721950  0.86787840     1.90100
O230        O  0.17621248  0.71182680  0.88034660    -0.73600
O231        O  0.09162824  0.67713631  0.85793739    -0.73400
O232        O  0.13899225  0.71568601  0.82771185    -0.79100
O233        O  0.09599552  0.62990310  0.83156849    -0.77300
O234        O  0.15494861  0.65481406  0.84938335    -1.13400
O235        O  0.14803990  0.59233249  0.82417870    -0.72600
C236        C  0.15806108  0.57821113  0.85020175     0.98100
C237        C  0.20609638  0.70584977  0.87367478     0.94500
Al238      Al  0.13590051  0.69055591  0.86737416     1.55600
O239        O  0.21224777  0.62476152  0.82734280    -0.77200
C240        C  0.07859577  0.65122071  0.84621024     0.98700
C241        C  0.15283187  0.65601271  0.92636413     0.93600
O242        O  0.17878483  0.64585662  0.91247647    -0.82500
O243        O  0.34097657  0.59475274  0.62013252    -0.82000
C244        C  0.38582857  0.70479500  0.69564286     0.97400
O245        O  0.39178883  0.67467645  0.70125447    -0.71100
O246        O  0.33734139  0.64029777  0.70533648    -0.74700
Al247      Al  0.37663758  0.63490867  0.68045692     1.49000
C248        C  0.30848406  0.63178586  0.69701942     0.92600
O249        O  0.29889743  0.67767898  0.63089482    -0.80900
O250        O  0.38233583  0.67113785  0.58470242    -0.74500
Al251      Al  0.32224465  0.63743942  0.62656187     1.90100
O252        O  0.33786733  0.71218785  0.61586060    -0.73600
O253        O  0.42205875  0.67605066  0.63520844    -0.73400
O254        O  0.37590746  0.71388497  0.66749428    -0.79100
O255        O  0.41805239  0.62764924  0.65943666    -0.77300
O256        O  0.35901834  0.65410963  0.64465036    -1.13400
O257        O  0.36545972  0.59072172  0.66835334    -0.72600
C258        C  0.35450814  0.57737550  0.64229652     0.98100
C259        C  0.30803171  0.70631462  0.62259193     0.94500
Al260      Al  0.37796844  0.69013856  0.62731549     1.55600
O261        O  0.30204172  0.62465969  0.66729028    -0.77200
C262        C  0.43510832  0.64925425  0.64468049     0.98700
C263        C  0.35991180  0.65729668  0.56808724     0.93600
O264        O  0.33408354  0.64682575  0.58206095    -0.82500
O265        O  0.08825969  0.16789987  0.62171128    -0.82000
C266        C  0.20350276  0.12970708  0.69266747     0.97400
O267        O  0.17393466  0.12286740  0.69951049    -0.71100
O268        O  0.13688383  0.17502303  0.70489759    -0.74700
Al269      Al  0.13282345  0.13527036  0.68051662     1.49000
C270        C  0.12603516  0.20321927  0.69699412     0.92600
O271        O  0.16952522  0.21515058  0.62985858    -0.80900
O272        O  0.16424820  0.13111507  0.58261433    -0.74500
Al273      Al  0.13005161  0.18946129  0.62656041     1.90100
O274        O  0.20469756  0.17781958  0.61246421    -0.73600
O275        O  0.17392266  0.09115570  0.63315504    -0.73400
O276        O  0.21123694  0.13921568  0.66395314    -0.79100
O277        O  0.12722064  0.09325313  0.66063691    -0.77300
O278        O  0.14937613  0.15351937  0.64380047    -1.13400
O279        O  0.08771081  0.14354387  0.67013045    -0.72600
C280        C  0.07270260  0.15302995  0.64445057     0.98100
C281        C  0.19824118  0.20742992  0.62033818     0.94500
Al282      Al  0.18532627  0.13624793  0.62463463     1.55600
O283        O  0.11737163  0.20900754  0.66757995    -0.77200
C284        C  0.14895417  0.07692290  0.64536962     0.98700
C285        C  0.14890551  0.15324396  0.56674629     0.93600
O286        O  0.13830597  0.17854670  0.58160931    -0.82500
O287        O  0.41594117  0.34201735  0.61856331    -0.82000
C288        C  0.30451284  0.38026882  0.69422305     0.97400
O289        O  0.33394737  0.38896685  0.69958128    -0.71100
O290        O  0.37147806  0.33671299  0.70402124    -0.74700
Al291      Al  0.37433835  0.37605986  0.67876650     1.49000
C292        C  0.38077860  0.30809183  0.69582331     0.92600
O293        O  0.33472785  0.29571894  0.62934873    -0.80900
O294        O  0.33805698  0.38082705  0.58358373    -0.74500
Al295      Al  0.37409265  0.32128862  0.62497215     1.90100
O296        O  0.29928115  0.33335447  0.61341453    -0.73600
O297        O  0.33015293  0.41980551  0.63484027    -0.73400
O298        O  0.29601941  0.36990800  0.66603962    -0.79100
O299        O  0.37918993  0.41773110  0.65767573    -0.77300
O300        O  0.35595848  0.35733625  0.64309626    -1.13400
O301        O  0.41858567  0.36729904  0.66637025    -0.72600
C302        C  0.43248363  0.35699334  0.64040817     0.98100
C303        C  0.30585806  0.30362702  0.62060443     0.94500
Al304      Al  0.31909910  0.37456372  0.62592249     1.55600
O305        O  0.38757632  0.30150888  0.66598190    -0.77200
C306        C  0.35625128  0.43416583  0.64432272     0.98700
C307        C  0.35284958  0.35924301  0.56663922     0.93600
O308        O  0.36421943  0.33337698  0.58020908    -0.82500
O309        O  0.41460711  0.16940149  0.86888500    -0.82000
C310        C  0.30008308  0.12903114  0.79903855     0.97400
O311        O  0.32956682  0.12115156  0.79247392    -0.71100
O312        O  0.36565236  0.17412027  0.78578183    -0.74700
Al313      Al  0.37090049  0.13493307  0.81094785     1.49000
C314        C  0.37540139  0.20275219  0.79332785     0.92600
O315        O  0.33280932  0.21389496  0.86191779    -0.80900
O316        O  0.34046330  0.12949437  0.90797397    -0.74500
Al317      Al  0.37248506  0.18942857  0.86440683     1.90100
O318        O  0.29869015  0.17631655  0.88048185    -0.73600
O319        O  0.33004832  0.09029582  0.85716027    -0.73400
O320        O  0.29262449  0.13924606  0.82759492    -0.79100
O321        O  0.37786214  0.09371055  0.83194912    -0.77300
O322        O  0.35401451  0.15319492  0.84742262    -1.13400
O323        O  0.41616553  0.14461617  0.82083170    -0.72600
C324        C  0.43076024  0.15503323  0.84641473     0.98100
C325        C  0.30474122  0.20603553  0.87288516     0.94500
Al326      Al  0.31850710  0.13528950  0.86669265     1.55600
O327        O  0.38358097  0.20928053  0.82283948    -0.77200
C328        C  0.35604738  0.07675110  0.84633749     0.98700
C329        C  0.35595389  0.15146008  0.92387646     0.93600
O330        O  0.36530346  0.17760775  0.90948633    -0.82500
O331        O  0.09206596  0.34279445  0.86847104    -0.82000
C332        C  0.20593873  0.38012379  0.79713277     0.97400
O333        O  0.17652901  0.38735042  0.78980768    -0.71100
O334        O  0.13797889  0.33641015  0.78556973    -0.74700
Al335      Al  0.13539542  0.37648504  0.80966255     1.49000
C336        C  0.12963441  0.30774864  0.79453788     0.92600
O337        O  0.17353734  0.29754338  0.86331835    -0.80900
O338        O  0.16772259  0.38272125  0.90653391    -0.74500
Al339      Al  0.13402317  0.32263472  0.86485128     1.90100
O340        O  0.20860053  0.33585669  0.87856226    -0.73600
O341        O  0.17750068  0.42088526  0.85556935    -0.73400
O342        O  0.21392460  0.37230838  0.82622813    -0.79100
O343        O  0.13053256  0.41934135  0.82885608    -0.77300
O344        O  0.15263768  0.35851915  0.84653936    -1.13400
O345        O  0.09071942  0.36897299  0.82110664    -0.72600
C346        C  0.07614252  0.35792665  0.84627730     0.98100
C347        C  0.20216540  0.30606366  0.87203205     0.94500
Al348      Al  0.18864616  0.37643307  0.86512056     1.55600
O349        O  0.12297097  0.30158361  0.82434785    -0.77200
C350        C  0.15240860  0.43545782  0.84417952     0.98700
C351        C  0.15192942  0.36150138  0.92305691     0.93600
O352        O  0.14115824  0.33557254  0.90950364    -0.82500
O353        O  0.91962676  0.86513349  0.32241666    -0.82000
C354        C  0.80996811  0.79868274  0.36993455     0.97400
O355        O  0.83830408  0.79210063  0.35883609    -0.71100
O356        O  0.89075130  0.79955048  0.32218182    -0.74700
Al357      Al  0.87674537  0.81798950  0.36384555     1.49000
C358        C  0.88243301  0.80613476  0.29266852     0.92600
O359        O  0.83177217  0.88495069  0.29150131    -0.80900
O360        O  0.83041951  0.91526128  0.35645176    -0.74500
Al361      Al  0.87397996  0.87310991  0.31094377     1.90100
O362        O  0.79597735  0.86476598  0.32668948    -0.73600
O363        O  0.84178356  0.87628966  0.40713732    -0.73400
O364        O  0.80298924  0.82781470  0.37892452    -0.79100
O365        O  0.86674769  0.82822276  0.40926033    -0.77300
O366        O  0.85732441  0.85373812  0.34689752    -1.13400
O367        O  0.91749191  0.83996391  0.37044902    -0.72600
C368        C  0.93386680  0.85486253  0.34849443     0.98100
C369        C  0.80267740  0.87544258  0.29820151     0.94500
Al370      Al  0.82089691  0.86980912  0.36570204     1.55600
O371        O  0.87100712  0.83420049  0.28551374    -0.77200
C372        C  0.85581982  0.85383078  0.42366464     0.98700
C373        C  0.85602344  0.93018373  0.34650299     0.93600
O374        O  0.87869789  0.91441704  0.33218410    -0.82500
O375        O  0.91680135  0.62621037  0.15931723    -0.82000
C376        C  0.80348004  0.69874759  0.12099631     0.97400
O377        O  0.83299121  0.70500603  0.11312283    -0.71100
O378        O  0.87102717  0.71028162  0.16458502    -0.74700
Al379      Al  0.87403061  0.68519600  0.12530143     1.49000
C380        C  0.88095396  0.70259772  0.19317092     0.92600
O381        O  0.83594941  0.63459608  0.20581224    -0.80900
O382        O  0.84121819  0.58902672  0.12092080    -0.74500
Al383      Al  0.87533537  0.63156219  0.18028466     1.90100
O384        O  0.80116804  0.61775497  0.16770278    -0.73600
O385        O  0.83136682  0.63939690  0.08137205    -0.73400
O386        O  0.79539805  0.67015826  0.13054532    -0.79100
O387        O  0.87917143  0.66458442  0.08367752    -0.77300
O388        O  0.85661899  0.64911203  0.14409030    -1.13400
O389        O  0.91886710  0.67376450  0.13332937    -0.72600
C390        C  0.93288318  0.64790365  0.14371435     0.98100
C391        C  0.80756428  0.62469662  0.19750625     0.94500
Al392      Al  0.82046259  0.63064090  0.12660342     1.55600
O393        O  0.88794382  0.67287948  0.19995448    -0.77200
C394        C  0.85716524  0.64981756  0.06729756     0.98700
C395        C  0.85635263  0.57265898  0.14282969     0.93600
O396        O  0.86689563  0.58659780  0.16873378    -0.82500
O397        O  0.59196247  0.87480602  0.15625332    -0.82000
C398        C  0.70796546  0.80591684  0.12021097     0.97400
O399        O  0.67895622  0.79942503  0.11059902    -0.71100
O400        O  0.64069492  0.79174966  0.16201835    -0.74700
Al401      Al  0.63705147  0.81743577  0.12264579     1.49000
C402        C  0.63019168  0.79940373  0.19041216     0.92600
O403        O  0.67228115  0.86721454  0.20368371    -0.80900
O404        O  0.66702192  0.91444576  0.11975592    -0.74500
Al405      Al  0.63328420  0.87025104  0.17788037     1.90100
O406        O  0.70715283  0.88700611  0.16748422    -0.73600
O407        O  0.67949902  0.86438663  0.08060597    -0.73400
O408        O  0.71501576  0.83447376  0.13066964    -0.79100
O409        O  0.63177543  0.83895938  0.08096332    -0.77300
O410        O  0.65302231  0.85376513  0.14209513    -1.13400
O411        O  0.59164895  0.82710737  0.13065535    -0.72600
C412        C  0.57648793  0.85229389  0.14111515     0.98100
C413        C  0.70059161  0.87823459  0.19670209     0.94500
Al414      Al  0.68904982  0.87341001  0.12589617     1.55600
O415        O  0.62143777  0.82871202  0.19667807    -0.77200
C416        C  0.65410157  0.85430880  0.06546494     0.98700
C417        C  0.65132717  0.93017200  0.14172517     0.93600
O418        O  0.64090061  0.91554311  0.16725881    -0.82500
O419        O  0.59189514  0.62958174  0.33349781    -0.82000
C420        C  0.70983754  0.69612409  0.36898296     0.97400
O421        O  0.68089036  0.70432748  0.37726487    -0.71100
O422        O  0.64268770  0.71157450  0.32580079    -0.74700
Al423      Al  0.63849863  0.68711141  0.36572831     1.49000
C424        C  0.63088526  0.70413823  0.29788366     0.92600
O425        O  0.67240661  0.63637624  0.28571802    -0.80900
O426        O  0.66559923  0.58881156  0.37024200    -0.74500
Al427      Al  0.63327561  0.63347148  0.31148780     1.90100
O428        O  0.70645750  0.61541627  0.32229099    -0.73600
O429        O  0.67905165  0.63926808  0.40947647    -0.73400
O430        O  0.71580707  0.66710519  0.35933082    -0.79100
O431        O  0.63285039  0.66741216  0.40808069    -0.77300
O432        O  0.65334174  0.64989702  0.34726605    -1.13400
O433        O  0.59288988  0.67797073  0.35797839    -0.72600
C434        C  0.57703372  0.65289106  0.34820335     0.98100
C435        C  0.70054089  0.62502989  0.29304806     0.94500
Al436      Al  0.68863075  0.62934318  0.36402889     1.55600
O437        O  0.62114086  0.67500589  0.29230954    -0.77200
C438        C  0.65469080  0.65208521  0.42431287     0.98700
C439        C  0.65096076  0.57294317  0.34762079     0.93600
O440        O  0.64099683  0.58788182  0.32199264    -0.82500
O441        O  0.63037695  0.08867354  0.16197995    -0.82000
C442        C  0.70102519  0.20352676  0.12373900     0.97400
O443        O  0.70796031  0.17402880  0.11637574    -0.71100
O444        O  0.71356802  0.13697473  0.16826531    -0.74700
Al445      Al  0.68894578  0.13283031  0.12882033     1.49000
C446        C  0.70580136  0.12630019  0.19648359     0.92600
O447        O  0.63852106  0.17007866  0.20857163    -0.80900
O448        O  0.59173767  0.16418976  0.12441632    -0.74500
Al449      Al  0.63525395  0.13053441  0.18322529     1.90100
O450        O  0.62083163  0.20500104  0.17090932    -0.73600
O451        O  0.64218734  0.17408679  0.08502949    -0.73400
O452        O  0.67234208  0.21141307  0.13288760    -0.79100
O453        O  0.66868385  0.12688009  0.08696201    -0.77300
O454        O  0.65245656  0.14962854  0.14719383    -1.13400
O455        O  0.67846812  0.08787492  0.13739745    -0.72600
C456        C  0.65296585  0.07295777  0.14714596     0.98100
C457        C  0.62889651  0.19871482  0.20046526     0.94500
Al458      Al  0.63334281  0.18550936  0.12971572     1.55600
O459        O  0.67640076  0.11800727  0.20268331    -0.77200
C460        C  0.65358219  0.14878081  0.07069097     0.98700
C461        C  0.57561446  0.14932367  0.14666186     0.93600
O462        O  0.59014081  0.13889306  0.17228361    -0.82500
O463        O  0.63214711  0.41288664  0.33424958    -0.82000
C464        C  0.70307058  0.30026631  0.37801628     0.97400
O465        O  0.70973248  0.33012120  0.38437620    -0.71100
O466        O  0.71586473  0.36625012  0.33153557    -0.74700
Al467      Al  0.69050115  0.37096664  0.37073862     1.49000
C468        C  0.70795876  0.37444458  0.30249062     0.92600
O469        O  0.64032778  0.32995122  0.29208747    -0.80900
O470        O  0.59363248  0.33883923  0.37570975    -0.74500
Al471      Al  0.63720830  0.37030229  0.31554673     1.90100
O472        O  0.62240236  0.29639126  0.33050212    -0.73600
O473        O  0.64401710  0.33015990  0.41581578    -0.73400
O474        O  0.67450464  0.29188534  0.36874789    -0.79100
O475        O  0.67017925  0.37754491  0.41236062    -0.77300
O476        O  0.65428057  0.35299196  0.35256493    -1.13400
O477        O  0.67918874  0.41596925  0.36096763    -0.72600
C478        C  0.65363256  0.42969436  0.34934157     0.98100
C479        C  0.62989550  0.30182888  0.30065003     0.94500
Al480      Al  0.63526329  0.31748252  0.37115889     1.55600
O481        O  0.67836993  0.38149793  0.29555230    -0.77200
C482        C  0.65548202  0.35589927  0.42930102     0.98700
C483        C  0.57776216  0.35356370  0.35313001     0.93600
O484        O  0.59215824  0.36284371  0.32703080    -0.82500
O485        O  0.87788485  0.08913100  0.33442070    -0.82000
C486        C  0.80914143  0.20426708  0.37388881     0.97400
O487        O  0.80287529  0.17499524  0.38284161    -0.71100
O488        O  0.79509220  0.13873012  0.33022639    -0.74700
Al489      Al  0.82066601  0.13357069  0.36904913     1.49000
C490        C  0.80232163  0.12812144  0.30181763     0.92600
O491        O  0.87020943  0.17067643  0.28825638    -0.80900
O492        O  0.91757767  0.16365495  0.37236174    -0.74500
Al493      Al  0.87315140  0.13106568  0.31358350     1.90100
O494        O  0.88964639  0.20467685  0.32569403    -0.73600
O495        O  0.86720748  0.17472688  0.41220490    -0.73400
O496        O  0.83740027  0.21153668  0.36296548    -0.79100
O497        O  0.84218609  0.12675059  0.41022806    -0.77300
O498        O  0.85684166  0.15001365  0.34989995    -1.13400
O499        O  0.82994501  0.08856837  0.35930391    -0.72600
C500        C  0.85494616  0.07340072  0.34858916     0.98100
C501        C  0.88176800  0.19861869  0.29602454     0.94500
Al502      Al  0.87635703  0.18561475  0.36698915     1.55600
O503        O  0.83150505  0.11939387  0.29507502    -0.77200
C504        C  0.85642606  0.14912060  0.42666405     0.98700
C505        C  0.93321718  0.14902592  0.34958390     0.93600
O506        O  0.91823885  0.13890774  0.32411717    -0.82500
O507        O  0.87781348  0.41431726  0.16014788    -0.82000
C508        C  0.80774390  0.29878789  0.12451876     0.97400
O509        O  0.80162178  0.32776803  0.11457606    -0.71100
O510        O  0.79582689  0.36468289  0.16681304    -0.74700
Al511      Al  0.82012058  0.36929683  0.12716394     1.49000
C512        C  0.80373946  0.37410669  0.19548222     0.92600
O513        O  0.87300230  0.33296688  0.20676998    -0.80900
O514        O  0.91692753  0.33839672  0.12107607    -0.74500
Al515      Al  0.87444742  0.37232346  0.18110634     1.90100
O516        O  0.89040735  0.29818221  0.16930614    -0.73600
O517        O  0.86479645  0.32683586  0.08350227    -0.73400
O518        O  0.83639085  0.29140414  0.13453395    -0.79100
O519        O  0.84044726  0.37523616  0.08520432    -0.77300
O520        O  0.85689697  0.35297445  0.14552625    -1.13400
O521        O  0.82966074  0.41456866  0.13569965    -0.72600
C522        C  0.85493029  0.42982303  0.14560263     0.98100
C523        C  0.88330498  0.30460397  0.19901461     0.94500
Al524      Al  0.87557003  0.31682357  0.12844630     1.55600
O525        O  0.83307781  0.38308640  0.20158819    -0.77200
C526        C  0.85417729  0.35242170  0.06890872     0.98700
C527        C  0.93335672  0.35462866  0.14222091     0.93600
O528        O  0.91943300  0.36528755  0.16817827    -0.82500
O529        O  0.16627530  0.09570463  0.37029949    -0.82000
C530        C  0.12759336  0.20831961  0.29549605     0.97400
O531        O  0.12110353  0.17847884  0.28955948    -0.71100
O532        O  0.17375872  0.14160033  0.28598368    -0.74700
Al533      Al  0.13388666  0.13825980  0.31022386     1.49000
C534        C  0.20200590  0.13159828  0.29472195     0.92600
O535        O  0.21246652  0.17733200  0.36321583    -0.80900
O536        O  0.12825923  0.17426547  0.40683073    -0.74500
Al537      Al  0.18710563  0.13775265  0.36552249     1.90100
O538        O  0.17404533  0.21357621  0.37571613    -0.73600
O539        O  0.08884831  0.18030457  0.35606793    -0.73400
O540        O  0.13639634  0.21720859  0.32404358    -0.79100
O541        O  0.09204372  0.13270435  0.33018510    -0.77300
O542        O  0.15150951  0.15639495  0.34673330    -1.13400
O543        O  0.14250080  0.09368829  0.32173488    -0.72600
C544        C  0.15198125  0.07943875  0.34776075     0.98100
C545        C  0.20393690  0.20643673  0.37072406     0.94500
Al546      Al  0.13344387  0.19302434  0.36414045     1.55600
O547        O  0.20791312  0.12519804  0.32478743    -0.77200
C548        C  0.07543021  0.15412041  0.34562342     0.98700
C549        C  0.14930307  0.15861972  0.42372073     0.93600
O550        O  0.17445143  0.14619963  0.41015110    -0.82500
O551        O  0.17069962  0.41884174  0.11861773    -0.82000
C552        C  0.12697703  0.30710697  0.19192435     0.97400
O553        O  0.12132358  0.33707445  0.19834123    -0.71100
O554        O  0.17441426  0.37365030  0.20420200    -0.74700
Al555      Al  0.13493851  0.37742467  0.17835155     1.49000
C556        C  0.20292181  0.38346916  0.19621521     0.92600
O557        O  0.21406915  0.33629093  0.13072331    -0.80900
O558        O  0.13141081  0.34377931  0.08143033    -0.74500
Al559      Al  0.19026239  0.37647051  0.12548271     1.90100
O560        O  0.17631941  0.30202887  0.11248017    -0.73600
O561        O  0.09034313  0.33629121  0.13099077    -0.73400
O562        O  0.13665846  0.29865216  0.16346297    -0.79100
O563        O  0.09298985  0.38344840  0.15752877    -0.77300
O564        O  0.15332571  0.35913251  0.14249102    -1.13400
O565        O  0.14465256  0.42165099  0.16611003    -0.72600
C566        C  0.15577221  0.43551900  0.14039986     0.98100
C567        C  0.20587491  0.30776072  0.12099470     0.94500
Al568      Al  0.13519529  0.32336015  0.12370214     1.55600
O569        O  0.20941699  0.38996119  0.16639116    -0.77200
C570        C  0.07635047  0.36188550  0.14221071     0.98700
C571        C  0.15436992  0.35775084  0.06562467     0.93600
O572        O  0.18004345  0.36709236  0.08056840    -0.82500
O573        O  0.34248952  0.09182358  0.12114637    -0.82000
C574        C  0.37649510  0.20719503  0.19364006     0.97400
O575        O  0.38376434  0.17775268  0.20067489    -0.71100
O576        O  0.33246807  0.13977530  0.20350115    -0.74700
Al577      Al  0.37296109  0.13674200  0.18066421     1.49000
C578        C  0.30441833  0.12960651  0.19451413     0.92600
O579        O  0.29473923  0.17282134  0.12465960    -0.80900
O580        O  0.38061289  0.17016313  0.08345752    -0.74500
Al581      Al  0.32097402  0.13375258  0.12410722     1.90100
O582        O  0.33274594  0.20937561  0.11193510    -0.73600
O583        O  0.41847135  0.17873164  0.13530378    -0.73400
O584        O  0.36871100  0.21525320  0.16456588    -0.79100
O585        O  0.41586084  0.13176667  0.16229782    -0.77300
O586        O  0.35586290  0.15350717  0.14326223    -1.13400
O587        O  0.36570871  0.09182348  0.16997564    -0.72600
C588        C  0.35646220  0.07645299  0.14454871     0.98100
C589        C  0.30289015  0.20190775  0.11687277     0.94500
Al590      Al  0.37361757  0.19004703  0.12536190     1.55600
O591        O  0.29912367  0.12204543  0.16462003    -0.77200
C592        C  0.43248128  0.15333190  0.14701049     0.98700
C593        C  0.36010423  0.15403048  0.06641429     0.93600
O594        O  0.33486117  0.14146645  0.07973849    -0.82500
O595        O  0.34410878  0.41915870  0.36918188    -0.82000
C596        C  0.38062775  0.30503947  0.29761419     0.97400
O597        O  0.38985683  0.33420301  0.29166077    -0.71100
O598        O  0.33872755  0.37296683  0.28472809    -0.74700
Al599      Al  0.37800434  0.37548945  0.31082763     1.49000
C600        C  0.31026494  0.38334086  0.29217684     0.92600
O601        O  0.29585354  0.33943903  0.35857518    -0.80900
O602        O  0.37904473  0.34242784  0.40761459    -0.74500
Al603      Al  0.32212815  0.37817253  0.36313541     1.90100
O604        O  0.33163919  0.30357642  0.37745288    -0.73600
O605        O  0.41895539  0.33153186  0.35775908    -0.73400
O606        O  0.36974802  0.29739112  0.32587842    -0.79100
O607        O  0.41987050  0.37941870  0.33250995    -0.77300
O608        O  0.35803639  0.35864572  0.34661029    -1.13400
O609        O  0.37040277  0.42066584  0.32182250    -0.72600
C610        C  0.35975529  0.43511094  0.34734397     0.98100
C611        C  0.30251179  0.31065201  0.36868444     0.94500
Al612      Al  0.37362211  0.32193143  0.36556013     1.55600
O613        O  0.30392163  0.39159748  0.32163096    -0.77200
C614        C  0.43483378  0.35633857  0.34753516     0.98700
C615        C  0.35700963  0.35776230  0.42350163     0.93600
O616        O  0.33195018  0.36899448  0.40853462    -0.82500
O617        O  0.16601410  0.63286541  0.08576296    -0.82000
C618        C  0.12658725  0.70361017  0.20009545     0.97400
O619        O  0.11816489  0.70961028  0.17065477    -0.71100
O620        O  0.17097592  0.71678586  0.13390565    -0.74700
Al621      Al  0.13175948  0.69093409  0.12954217     1.49000
C622        C  0.19945696  0.70920580  0.12361226     0.92600
O623        O  0.21254312  0.64212812  0.16685566    -0.80900
O624        O  0.12946146  0.59405595  0.16203237    -0.74500
Al625      Al  0.18715490  0.63828035  0.12751577     1.90100
O626        O  0.17580796  0.62379055  0.20195989    -0.73600
O627        O  0.08969442  0.64385047  0.17177248    -0.73400
O628        O  0.13774002  0.67545034  0.20781062    -0.79100
O629        O  0.09047181  0.66900377  0.12374869    -0.77300
O630        O  0.15107353  0.65492431  0.14653333    -1.13400
O631        O  0.14093209  0.68083822  0.08441417    -0.72600
C632        C  0.15134001  0.65537084  0.06971537     0.98100
C633        C  0.20509449  0.63212314  0.19549888     0.94500
Al634      Al  0.13450693  0.63591077  0.18276691     1.55600
O635        O  0.20572884  0.67981795  0.11500661    -0.77200
C636        C  0.07488941  0.65359674  0.14609233     0.98700
C637        C  0.15161658  0.57820999  0.14688570     0.93600
O638        O  0.17685103  0.59302408  0.13604284    -0.82500
O639        O  0.34220143  0.63131398  0.40849428    -0.82000
C640        C  0.38240339  0.70491466  0.29576474     0.97400
O641        O  0.38835963  0.71163719  0.32563722    -0.71100
O642        O  0.33614050  0.71602146  0.36259659    -0.74700
Al643      Al  0.37588176  0.69129189  0.36622243     1.49000
C644        C  0.30774103  0.70774228  0.37239200     0.92600
O645        O  0.29707040  0.64161734  0.32686529    -0.80900
O646        O  0.38005257  0.59421136  0.33189805    -0.74500
Al647      Al  0.32169107  0.63734919  0.36647780     1.90100
O648        O  0.33493835  0.62585171  0.29135239    -0.73600
O649        O  0.42046446  0.64378353  0.32496344    -0.73400
O650        O  0.37419778  0.67615106  0.28721549    -0.79100
O651        O  0.41799782  0.67111475  0.37180264    -0.77300
O652        O  0.35794464  0.65503420  0.34826428    -1.13400
O653        O  0.36694145  0.67942941  0.41094091    -0.72600
C654        C  0.35625369  0.65371432  0.42511164     0.98100
C655        C  0.30540734  0.63339562  0.29793631     0.94500
Al656      Al  0.37590288  0.63658334  0.31211318     1.55600
O657        O  0.30181264  0.67804415  0.37979764    -0.77200
C658        C  0.43429791  0.65493366  0.35062884     0.98700
C659        C  0.35785327  0.57805638  0.34658943     0.93600
O660        O  0.33256879  0.59260578  0.35731760    -0.82500
O661        O  0.17160118  0.88463018  0.40828542    -0.82000
C662        C  0.13040760  0.80853762  0.29730979     0.97400
O663        O  0.12418278  0.80271228  0.32731616    -0.71100
O664        O  0.17606266  0.79929726  0.36501808    -0.74700
Al665      Al  0.13626149  0.82417944  0.36744977     1.49000
C666        C  0.20481707  0.80780799  0.37359560     0.92600
O667        O  0.21498626  0.87324785  0.32607059    -0.80900
O668        O  0.13131766  0.92001471  0.33125377    -0.74500
Al669      Al  0.19091051  0.87803692  0.36591545     1.90100
O670        O  0.17682298  0.88896528  0.29096033    -0.73600
O671        O  0.09156799  0.86930922  0.32412791    -0.73400
O672        O  0.13880863  0.83708549  0.28793936    -0.79100
O673        O  0.09368114  0.84422211  0.37205865    -0.77300
O674        O  0.15432383  0.85990423  0.34851961    -1.13400
O675        O  0.14493323  0.83753303  0.41165951    -0.72600
C676        C  0.15674440  0.86304942  0.42524085     0.98100
C677        C  0.20644925  0.88151347  0.29719698     0.94500
Al678      Al  0.13617619  0.87736324  0.31189714     1.55600
O679        O  0.21115029  0.83772487  0.37947303    -0.77200
C680        C  0.07723795  0.85875498  0.34971721     0.98700
C681        C  0.15340614  0.93655254  0.34588398     0.93600
O682        O  0.17926918  0.92256364  0.35623606    -0.82500
O683        O  0.34120204  0.87974527  0.08305995    -0.82000
C684        C  0.38353023  0.80733891  0.19587123     0.97400
O685        O  0.39011628  0.80081858  0.16608077    -0.71100
O686        O  0.33602392  0.79570580  0.13094681    -0.74700
Al687      Al  0.37553375  0.82036122  0.12545306     1.49000
C688        C  0.30738572  0.80400331  0.12177183     0.92600
O689        O  0.29760068  0.87162981  0.16538264    -0.80900
O690        O  0.38150474  0.91713345  0.15885780    -0.74500
Al691      Al  0.32163269  0.87475735  0.12538081     1.90100
O692        O  0.33593760  0.88773832  0.19998567    -0.73600
O693        O  0.42087308  0.86647355  0.16605348    -0.73400
O694        O  0.37351215  0.83576455  0.20379976    -0.79100
O695        O  0.41702661  0.84079461  0.11829643    -0.77300
O696        O  0.35795645  0.85692788  0.14321433    -1.13400
O697        O  0.36506451  0.83115735  0.08069339    -0.72600
C698        C  0.35472104  0.85703961  0.06652779     0.98100
C699        C  0.30615169  0.88066849  0.19401695     0.94500
Al700      Al  0.37643718  0.87521949  0.17901189     1.55600
O701        O  0.30126052  0.83362414  0.11370844    -0.77200
C702        C  0.43405246  0.85565274  0.13988177     0.98700
C703        C  0.35957456  0.93362307  0.14403926     0.93600
O704        O  0.33372226  0.91979599  0.13332289    -0.82500
C705        C  0.24744474  0.87800889  0.21249098    -0.12500
C706        C  0.28092608  0.88259167  0.22073304     0.04500
C707        C  0.28945693  0.88723964  0.25447975    -0.07800
C708        C  0.26479626  0.88717762  0.27876860    -0.08500
C709        C  0.23145692  0.88249002  0.27045422    -0.03100
C710        C  0.22285654  0.87779055  0.23683592     0.03800
N711        N  0.18957036  0.87085929  0.22711011     0.66300
H712        H  0.24016291  0.87389640  0.18690646     0.15200
H713        H  0.27190065  0.89084088  0.30447264     0.14900
N714        N  0.32303146  0.89111915  0.26484241     0.74000
O715        O  0.17188287  0.89369351  0.21513420    -0.39500
O716        O  0.18011458  0.84116895  0.22470979    -0.39400
O717        O  0.33505252  0.91984254  0.26738971    -0.40100
O718        O  0.33781153  0.86707147  0.27828680    -0.40200
C719        C  0.39864748  0.72489119  0.23974685    -0.12500
C720        C  0.38443073  0.73139168  0.27074146     0.04500
C721        C  0.37146771  0.76306799  0.27725257    -0.07800
C722        C  0.37255003  0.78757822  0.25291931    -0.08500
C723        C  0.38636668  0.78127174  0.22165839    -0.03100
C724        C  0.40013034  0.74964103  0.21536187     0.03800
N725        N  0.41617622  0.74229146  0.18468728     0.66300
H726        H  0.40890691  0.70076818  0.23462177     0.15200
H727        H  0.36140947  0.81094312  0.25815843     0.14900
N728        N  0.35406600  0.76987450  0.30724812     0.74000
O729        O  0.44580846  0.75105241  0.18035341    -0.39500
O730        O  0.40276289  0.72271013  0.16436402    -0.39400
O731        O  0.36787521  0.78673771  0.32964885    -0.40100
O732        O  0.32315099  0.76579665  0.30794738    -0.40200
C733        C  0.28964769  0.76664879  0.37575141    -0.12500
C734        C  0.28116129  0.73298079  0.37513734     0.04500
C735        C  0.24729173  0.72421219  0.37617933    -0.07800
C736        C  0.22306614  0.74894050  0.37741703    -0.08500
C737        C  0.23149691  0.78261980  0.37625614    -0.03100
C738        C  0.26540603  0.79137842  0.37578298     0.03800
N739        N  0.27577744  0.82513900  0.37361254     0.66300
H740        H  0.31556159  0.77403546  0.37540827     0.15200
H741        H  0.19716479  0.74154977  0.37811393     0.14900
N742        N  0.23688329  0.69046623  0.37392455     0.74000
O743        O  0.28241811  0.84095971  0.39974874    -0.39500
O744        O  0.28417723  0.83691921  0.34589797    -0.39400
O745        O  0.22632227  0.67577528  0.39940970    -0.40100
O746        O  0.23278024  0.67745247  0.34578680    -0.40200
C747        C  0.25926905  0.72299523  0.11829764    -0.12500
C748        C  0.22648327  0.73415678  0.12203496     0.04500
C749        C  0.22081469  0.76851524  0.12540044    -0.07800
C750        C  0.24746748  0.79064068  0.12471389    -0.08500
C751        C  0.28016060  0.77941620  0.12113860    -0.03100
C752        C  0.28592702  0.74509660  0.11804231     0.03800
N753        N  0.31861483  0.73220068  0.11432053     0.66300
H754        H  0.26450025  0.69670889  0.11604211     0.15200
H755        H  0.24247507  0.81692066  0.12759933     0.14900
N756        N  0.18828884  0.78149080  0.12990251     0.74000
O757        O  0.33341851  0.72030577  0.13918162    -0.39500
O758        O  0.32992891  0.72700009  0.08566399    -0.39400
O759        O  0.18017703  0.79310455  0.15775433    -0.40100
O760        O  0.17032757  0.78718157  0.10493253    -0.40200
C761        C  0.13826023  0.72433556  0.25684858    -0.12500
C762        C  0.12451327  0.73015353  0.22543748     0.04500
C763        C  0.11140654  0.76198864  0.21834829    -0.07800
C764        C  0.11370615  0.78729017  0.24197925    -0.08500
C765        C  0.12793134  0.78136089  0.27307642    -0.03100
C766        C  0.13995033  0.74942719  0.28056535     0.03800
N767        N  0.15667071  0.74281071  0.31103428     0.66300
H768        H  0.14882763  0.70031459  0.26289045     0.15200
H769        H  0.10390771  0.81168674  0.23612067     0.14900
N770        N  0.09518020  0.76897904  0.18762861     0.74000
O771        O  0.14099144  0.72988330  0.33476210    -0.39500
O772        O  0.18786070  0.74254555  0.31139480    -0.39400
O773        O  0.06442991  0.76435132  0.18503693    -0.40100
O774        O  0.11023918  0.78471733  0.16524805    -0.40200
C775        C  0.24784595  0.62323598  0.27938821    -0.12500
C776        C  0.28026014  0.63238291  0.27144888     0.04500
C777        C  0.28794521  0.64092446  0.23842872    -0.07800
C778        C  0.26335835  0.63980239  0.21405082    -0.08500
C779        C  0.23074852  0.63070689  0.22185978    -0.03100
C780        C  0.22314988  0.62228034  0.25511775     0.03800
N781        N  0.19044975  0.61326010  0.26499214     0.66300
H782        H  0.24158562  0.61666461  0.30470141     0.15200
H783        H  0.26977760  0.64704522  0.18897280     0.14900
N784        N  0.31990585  0.65321416  0.22969252     0.74000
O785        O  0.18227932  0.58310058  0.26555757    -0.39500
O786        O  0.17215661  0.63446109  0.27882556    -0.39400
O787        O  0.33946285  0.63511086  0.21342658    -0.40100
O788        O  0.32575339  0.68381326  0.23221644    -0.40200
C789        C  0.34222822  0.48848845  0.37189819    -0.12500
C790        C  0.36341759  0.47147800  0.35040454     0.04500
C791        C  0.38502858  0.48990701  0.32996917    -0.07800
C792        C  0.38342671  0.52454399  0.32988111    -0.08500
C793        C  0.36067701  0.54156235  0.34991749    -0.03100
C794        C  0.34040423  0.52304406  0.37174718     0.03800
N795        N  0.31766928  0.53852829  0.39400339     0.66300
H796        H  0.32560564  0.47486979  0.38798796     0.15200
H797        H  0.39966450  0.53812115  0.31337152     0.14900
N798        N  0.40871863  0.47393144  0.30911939     0.74000
O799        O  0.29015524  0.54857236  0.38310469    -0.39500
O800        O  0.32082235  0.53332211  0.42467395    -0.39400
O801        O  0.40484455  0.47422175  0.27807672    -0.40100
O802        O  0.43577878  0.46409223  0.32125608    -0.40200
C803        C  0.35000922  0.02251214  0.11502262    -0.12500
C804        C  0.36099770  0.03994031  0.14308281     0.04500
C805        C  0.37454219  0.02175392  0.17002116    -0.07800
C806        C  0.37561555  0.98718079  0.16879935    -0.08500
C807        C  0.36294222  0.96991396  0.14154119    -0.03100
C808        C  0.35079312  0.98784086  0.11413472     0.03800
N809        N  0.33937593  0.97118703  0.08510613     0.66300
H810        H  0.34006321  0.03574309  0.09386511     0.15200
H811        H  0.38484134  0.97370905  0.19015449     0.14900
N812        N  0.38577275  0.03766872  0.19961769     0.74000
O813        O  0.30877028  0.96981351  0.07916186    -0.39500
O814        O  0.35974686  0.96367833  0.06267102    -0.39400
O815        O  0.36631020  0.04081206  0.22383974    -0.40100
O816        O  0.41621565  0.04327942  0.20358137    -0.40200
C817        C  0.36629933  0.24919217  0.27658777    -0.12500
C818        C  0.38149777  0.27990574  0.27092293     0.04500
C819        C  0.39493548  0.28658474  0.23915280    -0.07800
C820        C  0.39223271  0.26293693  0.21394312    -0.08500
C821        C  0.37734640  0.23226183  0.21998612    -0.03100
C822        C  0.36421508  0.22547721  0.25158324     0.03800
N823        N  0.34658790  0.19553108  0.25801338     0.66300
H824        H  0.35516832  0.24365062  0.30043607     0.15200
H825        H  0.40278708  0.26817369  0.18975640     0.14900
N826        N  0.41240027  0.31660970  0.23230803     0.74000
O827        O  0.36049512  0.17258027  0.27408365    -0.39500
O828        O  0.31558608  0.19519731  0.25447527    -0.39400
O829        O  0.44228154  0.31925583  0.24095684    -0.40100
O830        O  0.40015586  0.33765732  0.21267376    -0.40200
C831        C  0.17035333  0.52626821  0.11951649    -0.12500
C832        C  0.14914310  0.54181618  0.14235013     0.04500
C833        C  0.12730483  0.52192945  0.16106439    -0.07800
C834        C  0.12877183  0.48748791  0.15828027    -0.08500
C835        C  0.15178449  0.47188715  0.13745168    -0.03100
C836        C  0.17178997  0.49171255  0.11682643     0.03800
N837        N  0.19423244  0.47742989  0.09358135     0.66300
H838        H  0.18667344  0.54098405  0.10410236     0.15200
H839        H  0.11246953  0.47278945  0.17374266     0.14900
N840        N  0.10434894  0.53583100  0.18408667     0.74000
O841        O  0.18829133  0.48026297  0.06300452    -0.39500
O842        O  0.22281869  0.46904965  0.10298253    -0.39400
O843        O  0.07400903  0.52924203  0.18094285    -0.40100
O844        O  0.11479457  0.54698775  0.21137825    -0.40200
C845        C  0.26275542  0.38320310  0.21028517    -0.12500
C846        C  0.22990176  0.38635919  0.22112274     0.04500
C847        C  0.22393944  0.39034199  0.25533895    -0.07800
C848        C  0.25057874  0.39017503  0.27766874    -0.08500
C849        C  0.28336540  0.38535465  0.26694826    -0.03100
C850        C  0.28919527  0.38170323  0.23265499     0.03800
N851        N  0.32145498  0.37481503  0.22011074     0.66300
H852        H  0.26800134  0.38031921  0.18398486     0.15200
H853        H  0.24532251  0.39334938  0.30391394     0.14900
N854        N  0.19122984  0.39539395  0.26781328     0.74000
O855        O  0.33051568  0.34506346  0.21701075    -0.39500
O856        O  0.33753602  0.39739888  0.20572009    -0.39400
O857        O  0.18063252  0.37749972  0.29115453    -0.40100
O858        O  0.17530241  0.42101690  0.25958627    -0.40200
C859        C  0.22438271  0.25175240  0.10101979    -0.12500
C860        C  0.23100734  0.28072261  0.11940498     0.04500
C861        C  0.26167714  0.28315881  0.13614457    -0.07800
C862        C  0.28475313  0.25747766  0.13405350    -0.08500
C863        C  0.27795303  0.22860963  0.11613800    -0.03100
C864        C  0.24754281  0.22578137  0.09934244     0.03800
N865        N  0.24065389  0.19760055  0.07907191     0.66300
H866        H  0.20128370  0.24932170  0.08761763     0.15200
H867        H  0.30787084  0.25970334  0.14752413     0.14900
N868        N  0.26935056  0.31079231  0.15678775     0.74000
O869        O  0.22335960  0.17417863  0.09035302    -0.39500
O870        O  0.24748289  0.19844422  0.04857332    -0.39400
O871        O  0.26144291  0.30991644  0.18701778    -0.40100
O872        O  0.29002440  0.33199628  0.14690703    -0.40200
C873        C  0.16784081  0.02562870  0.37315904    -0.12500
C874        C  0.14806753  0.04302990  0.35053879     0.04500
C875        C  0.12722432  0.02493209  0.32887902    -0.07800
C876        C  0.12849987  0.99027830  0.32853247    -0.08500
C877        C  0.14996387  0.97293340  0.34967998    -0.03100
C878        C  0.16895830  0.99101063  0.37295921     0.03800
N879        N  0.18919102  0.97473891  0.39702591     0.66300
H880        H  0.18353730  0.03890367  0.39039554     0.15200
H881        H  0.11316895  0.97697471  0.31099030     0.14900
N882        N  0.10464114  0.04127083  0.30698679     0.74000
O883        O  0.21916896  0.96899597  0.39052764    -0.39500
O884        O  0.17952953  0.97360140  0.42671202    -0.39400
O885        O  0.11039630  0.04195104  0.27626132    -0.40100
O886        O  0.07676597  0.05042798  0.31761465    -0.40200
C887        C  0.22089846  0.26408123  0.35861584    -0.12500
C888        C  0.22875811  0.23319433  0.37246221     0.04500
C889        C  0.26044835  0.22811696  0.38599910    -0.07800
C890        C  0.28398167  0.25363775  0.38462672    -0.08500
C891        C  0.27641033  0.28461191  0.37026564    -0.03100
C892        C  0.24431067  0.28955776  0.35713187     0.03800
N893        N  0.23550402  0.31950430  0.34042950     0.66300
H894        H  0.19673562  0.26809258  0.34768566     0.15200
H895        H  0.30818616  0.24922827  0.39523791     0.14900
N896        N  0.26858472  0.19769005  0.40236479     0.74000
O897        O  0.24009569  0.32175485  0.30958897    -0.39500
O898        O  0.21745407  0.34051850  0.35484663    -0.39400
O899        O  0.29335460  0.18104876  0.39321237    -0.40100
O900        O  0.25187018  0.18815344  0.42699110    -0.40200
C901        C  0.21971609  0.12685071  0.23569816    -0.12500
C902        C  0.22840378  0.12758227  0.26943135     0.04500
C903        C  0.26227282  0.12596223  0.27805407    -0.07800
C904        C  0.28633872  0.12527296  0.25321606    -0.08500
C905        C  0.27771053  0.12672653  0.21953481    -0.03100
C906        C  0.24385766  0.12689625  0.21083753     0.03800
N907        N  0.23347861  0.12909588  0.17704142     0.66300
H908        H  0.19388224  0.12699777  0.22842905     0.15200
H909        H  0.31216820  0.12437714  0.26050595     0.14900
N910        N  0.27290479  0.12643073  0.31183388     0.74000
O911        O  0.22442495  0.10329534  0.16191035    -0.39500
O912        O  0.22797213  0.15714718  0.16435318    -0.39400
O913        O  0.27644458  0.09947172  0.32729538    -0.40100
O914        O  0.28471455  0.15272875  0.32388608    -0.40200
C915        C  0.11611841  0.26561199  0.27607279    -0.12500
C916        C  0.12502189  0.23293819  0.26856540     0.04500
C917        C  0.13216857  0.22448273  0.23540135    -0.07800
C918        C  0.13153329  0.24879821  0.21083306    -0.08500
C919        C  0.12336214  0.28172470  0.21827201    -0.03100
C920        C  0.11450297  0.28984734  0.25127637     0.03800
N921        N  0.10350045  0.32233016  0.26009505     0.66300
H922        H  0.10987516  0.27232339  0.30140045     0.15200
H923        H  0.13843698  0.24180676  0.18576577     0.14900
N924        N  0.14278126  0.19193877  0.22657274     0.74000
O925        O  0.07450949  0.33128789  0.25268259    -0.39500
O926        O  0.12015615  0.33941485  0.28027309    -0.39400
O927        O  0.12172861  0.17098180  0.21691280    -0.40100
O928        O  0.17302755  0.18694176  0.22086796    -0.40200
C929        C  0.98605188  0.38137348  0.16046727    -0.12500
C930        C  0.96960060  0.36039208  0.13796527     0.04500
C931        C  0.98866974  0.34383355  0.11372721    -0.07800
C932        C  0.02331530  0.34603714  0.11450702    -0.08500
C933        C  0.03979551  0.36513709  0.13857846    -0.03100
C934        C  0.02061069  0.38412199  0.16078204     0.03800
N935        N  0.03576824  0.40474919  0.18523058     0.66300
H936        H  0.97209275  0.39512539  0.17880793     0.15200
H937        H  0.03746346  0.33185848  0.09663422     0.14900
N938        N  0.97350319  0.32366402  0.08890168     0.74000
O939        O  0.04143541  0.43479989  0.17874393    -0.39500
O940        O  0.03886828  0.39439368  0.21458843    -0.39400
O941        O  0.96786584  0.33561701  0.06053585    -0.40100
O942        O  0.97070900  0.29287579  0.09352823    -0.40200
C943        C  0.98704446  0.16339270  0.37588007    -0.12500
C944        C  0.96969994  0.14574731  0.35141978     0.04500
C945        C  0.98788948  0.12801028  0.32724435    -0.07800
C946        C  0.02236294  0.12995365  0.32680334    -0.08500
C947        C  0.03947985  0.14937068  0.34992027    -0.03100
C948        C  0.02156553  0.16540742  0.37528689     0.03800
N949        N  0.03798073  0.18380863  0.40068532     0.66300
H950        H  0.97378084  0.17680192  0.39494372     0.15200
H951        H  0.03569207  0.11717046  0.30734598     0.14900
N952        N  0.97187330  0.10872344  0.30222802     0.74000
O953        O  0.04053511  0.21485536  0.39804914    -0.39500
O954        O  0.04396523  0.17012533  0.42817648    -0.39400
O955        O  0.96959884  0.11989009  0.27308429    -0.40100
O956        O  0.96510591  0.07873069  0.30783756    -0.40200
C957        C  0.88653821  0.25835647  0.28136244    -0.12500
C958        C  0.88532616  0.22520341  0.27080673     0.04500
C959        C  0.88618246  0.21851501  0.23648181    -0.07800
C960        C  0.88670556  0.24474196  0.21374676    -0.08500
C961        C  0.88597719  0.27794030  0.22428969    -0.03100
C962        C  0.88643580  0.28458992  0.25864869     0.03800
N963        N  0.88693605  0.31775489  0.27098154     0.66300
H964        H  0.88662499  0.26416315  0.30771278     0.15200
H965        H  0.88694941  0.23891016  0.18739756     0.14900
N966        N  0.88729765  0.18531139  0.22428063     0.74000
O967        O  0.86010149  0.33190477  0.27833522    -0.39500
O968        O  0.91395912  0.33034227  0.28026417    -0.39400
O969        O  0.86236257  0.17318798  0.20989053    -0.40100
O970        O  0.91458371  0.17017313  0.22317030    -0.40200
C971        C  0.52322094  0.33422134  0.37323070    -0.12500
C972        C  0.54150795  0.35799507  0.35593709     0.04500
C973        C  0.52451889  0.38298377  0.33822372    -0.07800
C974        C  0.48985600  0.38242146  0.33644133    -0.08500
C975        C  0.47142657  0.35743209  0.35221163    -0.03100
C976        C  0.48868022  0.33330988  0.37126031     0.03800
N977        N  0.47200153  0.30662206  0.38754659     0.66300
H978        H  0.53591441  0.31472617  0.38673906     0.15200
H979        H  0.47736116  0.40149543  0.32219846     0.14900
N980        N  0.54213476  0.40919547  0.32211611     0.74000
O981        O  0.46237829  0.28213491  0.37065732    -0.39500
O982        O  0.47502276  0.30338361  0.41850509    -0.39400
O983        O  0.53839438  0.41418467  0.29145436    -0.40100
O984        O  0.56033198  0.42835019  0.33881931    -0.40200
C985        C  0.76174893  0.28572542  0.37016203    -0.12500
C986        C  0.72999227  0.27565403  0.37972427     0.04500
C987        C  0.72454949  0.24218394  0.38815110    -0.07800
C988        C  0.75079614  0.21962104  0.38624482    -0.08500
C989        C  0.78260729  0.22957929  0.37618868    -0.03100
C990        C  0.78783107  0.26318167  0.36793581     0.03800
N991        N  0.81886655  0.27464357  0.35563857     0.66300
H992        H  0.76615680  0.31140303  0.36296363     0.15200
H993        H  0.74612300  0.19391739  0.39293778     0.14900
N994        N  0.69304284  0.23095049  0.39981300     0.74000
O995        O  0.82369399  0.27528150  0.32476135    -0.39500
O996        O  0.83806969  0.29043068  0.37457447    -0.39400
O997        O  0.68091098  0.20437138  0.38868684    -0.40100
O998        O  0.68031999  0.24415889  0.42510969    -0.40200
C999        C  0.72233346  0.36962130  0.24293132    -0.12500
C1000       C  0.73293964  0.37497216  0.27565541     0.04500
C1001       C  0.76700978  0.37941912  0.28181800    -0.07800
C1002       C  0.78938508  0.37954592  0.25535471    -0.08500
C1003       C  0.77879522  0.37434826  0.22253102    -0.03100
C1004       C  0.74477368  0.36863521  0.21660783     0.03800
N1005       N  0.73253703  0.36097625  0.18425109     0.66300
H1006       H  0.69634273  0.36513891  0.23773477     0.15200
H1007       H  0.81541121  0.38348155  0.26073147     0.14900
N1008       N  0.77934256  0.38419897  0.31467316     0.74000
O1009       O  0.71770541  0.38293886  0.16764303    -0.39500
O1010       O  0.73135626  0.33116762  0.17489673    -0.39400
O1011       O  0.79517151  0.36118547  0.32874748    -0.40100
O1012       O  0.77976446  0.41292050  0.32697705    -0.40200
C1013       C  0.52215014  0.16557745  0.12051991    -0.12500
C1014       C  0.53906565  0.14611317  0.14387285     0.04500
C1015       C  0.52038037  0.12635077  0.16598373    -0.07800
C1016       C  0.48577567  0.12850059  0.16606409    -0.08500
C1017       C  0.46895224  0.14957545  0.14402132    -0.03100
C1018       C  0.48757384  0.16738171  0.12031084     0.03800
N1019       N  0.47189164  0.18685254  0.09523731     0.66300
H1020       H  0.53579532  0.18039928  0.10281806     0.15200
H1021       H  0.47206943  0.11391812  0.18391808     0.14900
N1022       N  0.53603851  0.10376877  0.18838413     0.74000
O1023       O  0.46618257  0.21712364  0.10055119    -0.39500
O1024       O  0.47103226  0.17603682  0.06592362    -0.39400
O1025       O  0.53544036  0.10933616  0.21915001    -0.40100
O1026       O  0.54596991  0.07603784  0.17793580    -0.40200
C1027       C  0.75755699  0.22029312  0.13897006    -0.12500
C1028       C  0.72771854  0.22823797  0.12321122     0.04500
C1029       C  0.72399073  0.25950718  0.10830331    -0.07800
C1030       C  0.75042285  0.28192024  0.10876213    -0.08500
C1031       C  0.78068276  0.27390521  0.12424940    -0.03100
C1032       C  0.78375767  0.24281088  0.14007572     0.03800
N1033       N  0.81246849  0.23434414  0.15891087     0.66300
H1034       H  0.76018215  0.19650973  0.15151668     0.15200
H1035       H  0.74719954  0.30575736  0.09661862     0.14900
N1036       N  0.69411443  0.26827006  0.09145765     0.74000
O1037       O  0.81305149  0.24029846  0.18960743    -0.39500
O1038       O  0.83413283  0.21563554  0.14644919    -0.39400
O1039       O  0.67606235  0.29110702  0.10278173    -0.40100
O1040       O  0.68872423  0.25721220  0.06270747    -0.40200
C1041       C  0.72017001  0.12442093  0.25624805    -0.12500
C1042       C  0.73083664  0.12442425  0.22308953     0.04500
C1043       C  0.76506196  0.12468092  0.21629217    -0.07800
C1044       C  0.78766232  0.12580470  0.24241425    -0.08500
C1045       C  0.77703389  0.12635485  0.27551752    -0.03100
C1046       C  0.74286409  0.12545944  0.28239086     0.03800
N1047       N  0.73073137  0.12518103  0.31565208     0.66300
H1048       H  0.69405372  0.12434625  0.26201088     0.15200
H1049       H  0.81376584  0.12625792  0.23662803     0.14900
N1050       N  0.77745009  0.12292651  0.18314471     0.74000
O1051       O  0.72286701  0.15209239  0.32946030    -0.39500
O1052       O  0.72252642  0.09807536  0.32887916    -0.39400
O1053       O  0.79572498  0.14578780  0.17224701    -0.40100
O1054       O  0.77564934  0.09594542  0.16746671    -0.40200
C1055       C  0.63194443  0.28328970  0.24180862    -0.12500
C1056       C  0.62692504  0.27517369  0.27529711     0.04500
C1057       C  0.62112372  0.24158418  0.28366839    -0.07800
C1058       C  0.62175382  0.21714799  0.25898753    -0.08500
C1059       C  0.62724497  0.22535398  0.22567939    -0.03100
C1060       C  0.63205467  0.25896771  0.21715079     0.03800
N1061       N  0.63935184  0.26868465  0.18390036     0.66300
H1062       H  0.63657628  0.30881098  0.23455702     0.15200
H1063       H  0.61775676  0.19144368  0.26599368     0.14900
N1064       N  0.61522690  0.23160378  0.31710048     0.74000
O1065       O  0.61673582  0.28064701  0.16592218    -0.39500
O1066       O  0.66911923  0.27169334  0.17508194    -0.39400
O1067       O  0.58622863  0.23273583  0.32855388    -0.40100
O1068       O  0.63722263  0.21569179  0.33258471    -0.40200
C1069       C  0.48824690  0.67525669  0.37154634    -0.12500
C1070       C  0.47047577  0.65087052  0.35449376     0.04500
C1071       C  0.48799912  0.62535434  0.33824015    -0.07800
C1072       C  0.52260266  0.62594295  0.33747674    -0.08500
C1073       C  0.54052124  0.65164701  0.35264332    -0.03100
C1074       C  0.52282419  0.67621480  0.37051820     0.03800
N1075       N  0.53911082  0.70316781  0.38675924     0.66300
H1076       H  0.47520464  0.69503752  0.38412025     0.15200
H1077       H  0.53540545  0.60645936  0.32422984     0.14900
N1078       N  0.47104821  0.59859150  0.32242406     0.74000
O1079       O  0.54897342  0.72747591  0.36974469    -0.39500
O1080       O  0.53548605  0.70676032  0.41759614    -0.39400
O1081       O  0.47103095  0.59642015  0.29122371    -0.40100
O1082       O  0.46072890  0.57458838  0.33957910    -0.40200
C1083       C  0.66301078  0.51946345  0.37640112    -0.12500
C1084       C  0.64743597  0.53630292  0.35013741     0.04500
C1085       C  0.63121126  0.51738363  0.32540064    -0.07800
C1086       C  0.63251863  0.48275868  0.32643420    -0.08500
C1087       C  0.64968015  0.46610179  0.35165812    -0.03100
C1088       C  0.66423320  0.48479268  0.37736507     0.03800
N1089       N  0.67987794  0.46896537  0.40491140     0.66300
H1090       H  0.67517634  0.53326226  0.39606434     0.15200
H1091       H  0.62085208  0.46880096  0.30656239     0.14900
N1092       N  0.61396956  0.53276261  0.29853397     0.74000
O1093       O  0.71098689  0.46665441  0.40580607    -0.39500
O1094       O  0.66330293  0.46303728  0.43071231    -0.39400
O1095       O  0.62681258  0.53320853  0.27004755    -0.40100
O1096       O  0.58398904  0.54071418  0.30196999    -0.40200
C1097       C  0.52333362  0.88160560  0.15151627    -0.12500
C1098       C  0.54008344  0.85480830  0.13694793     0.04500
C1099       C  0.52134484  0.83023504  0.12030449    -0.07800
C1100       C  0.48685318  0.83238520  0.11961322    -0.08500
C1101       C  0.47023321  0.85807835  0.13591911    -0.03100
C1102       C  0.48880891  0.88333784  0.15131669     0.03800
N1103       N  0.47302194  0.91079017  0.16711254     0.66300
H1104       H  0.53699742  0.90096457  0.16414678     0.15200
H1105       H  0.47293278  0.81260251  0.10790484     0.14900
N1106       N  0.53656904  0.80194140  0.10548166     0.74000
O1107       O  0.47071115  0.91141741  0.19829493    -0.39500
O1108       O  0.46723238  0.93677688  0.15069467    -0.39400
O1109       O  0.54081624  0.77608331  0.12257458    -0.40100
O1110       O  0.53873682  0.80025888  0.07434679    -0.40200
C1111       C  0.67068007  0.98409241  0.12019997    -0.12500
C1112       C  0.64759880  0.96652842  0.13905987     0.04500
C1113       C  0.62418163  0.98433646  0.15792864    -0.07800
C1114       C  0.62574225  0.01895727  0.15930324    -0.08500
C1115       C  0.65042780  0.03655043  0.14227676    -0.03100
C1116       C  0.67273662  0.01860208  0.12185456     0.03800
N1117       N  0.69838296  0.03443071  0.10325004     0.66300
H1118       H  0.68882438  0.97084846  0.10553094     0.15200
H1119       H  0.60796634  0.03201191  0.17456097     0.14900
N1120       N  0.59863548  0.96770100  0.17583652     0.74000
O1121       O  0.72388896  0.04454312  0.11820333    -0.39500
O1122       O  0.70012649  0.02905790  0.07250682    -0.39400
O1123       O  0.60038313  0.96553848  0.20699438    -0.40100
O1124       O  0.57192334  0.96053116  0.16132420    -0.40200
C1125       C  0.63222021  0.78565871  0.25030995    -0.12500
C1126       C  0.62891420  0.77462876  0.21743338     0.04500
C1127       C  0.62513663  0.74046757  0.21139349    -0.07800
C1128       C  0.62482143  0.71819316  0.23801426    -0.08500
C1129       C  0.62904638  0.72909657  0.27088831    -0.03100
C1130       C  0.63247980  0.76338487  0.27687722     0.03800
N1131       N  0.63563751  0.77616426  0.30975222     0.66300
H1132       H  0.63521509  0.81187031  0.25550914     0.15200
H1133       H  0.62176982  0.69201764  0.23273986     0.14900
N1134       N  0.62090144  0.72803239  0.17850961     0.74000
O1135       O  0.66390875  0.78306328  0.32109218    -0.39500
O1136       O  0.61018847  0.78568692  0.32509978    -0.39400
O1137       O  0.64487807  0.71441793  0.16387475    -0.40100
O1138       O  0.59225052  0.72605809  0.16624022    -0.40200
C1139       C  0.88311740  0.48363333  0.15660856    -0.12500
C1140       C  0.85707616  0.46633515  0.14129122     0.04500
C1141       C  0.83310268  0.48462199  0.12320219    -0.07800
C1142       C  0.83482913  0.51918228  0.12220070    -0.08500
C1143       C  0.85948728  0.53636965  0.13944615    -0.03100
C1144       C  0.88446992  0.51827370  0.15588921     0.03800
N1145       N  0.91148371  0.53467161  0.17181171     0.66300
H1146       H  0.90222767  0.47031585  0.16998735     0.15200
H1147       H  0.81548360  0.53270660  0.10934942     0.14900
N1148       N  0.80608776  0.46891247  0.10657623     0.74000
O1149       O  0.91191221  0.53732372  0.20297024    -0.39500
O1150       O  0.93718407  0.54138253  0.15543426    -0.39400
O1151       O  0.78059187  0.46129127  0.12288729    -0.40100
O1152       O  0.80414797  0.47089286  0.07543469    -0.40200
C1153       C  0.98636924  0.62713068  0.16450055    -0.12500
C1154       C  0.96900617  0.64446919  0.14003121     0.04500
C1155       C  0.98680914  0.66150059  0.11525206    -0.07800
C1156       C  0.02134362  0.66306622  0.11695473    -0.08500
C1157       C  0.03872293  0.64802699  0.14314696    -0.03100
C1158       C  0.02075742  0.62905585  0.16670627     0.03800
N1159       N  0.03642262  0.61288830  0.19414464     0.66300
H1160       H  0.97305848  0.61385367  0.18364209     0.15200
H1161       H  0.03445041  0.67699094  0.09816113     0.14900
N1162       N  0.97021554  0.67743292  0.08828204     0.74000
O1163       O  0.04483438  0.62987350  0.21902241    -0.39500
O1164       O  0.03296088  0.58201651  0.19751194    -0.39400
O1165       O  0.96882109  0.70864251  0.08715953    -0.40100
O1166       O  0.96215270  0.66075820  0.06309131    -0.40200
C1167       C  0.74870505  0.63193868  0.21205109    -0.12500
C1168       C  0.78055912  0.62256792  0.22208842     0.04500
C1169       C  0.78581020  0.61300236  0.25530628    -0.07800
C1170       C  0.75929234  0.61350265  0.27769583    -0.08500
C1171       C  0.72734066  0.62339524  0.26779946    -0.03100
C1172       C  0.72233212  0.63276286  0.23437597     0.03800
N1173       N  0.69108371  0.64453793  0.22281063     0.66300
H1174       H  0.74437362  0.63981309  0.18659023     0.15200
H1175       H  0.76389156  0.60604167  0.30318383     0.14900
N1176       N  0.81742310  0.60141911  0.26636017     0.74000
O1177       O  0.68599752  0.67534092  0.22140932    -0.39500
O1178       O  0.67211875  0.62514468  0.20730654    -0.39400
O1179       O  0.83015399  0.61328164  0.29235108    -0.40100
O1180       O  0.82965668  0.57557751  0.25374674    -0.40200
C1181       C  0.78965000  0.75868232  0.12350005    -0.12500
C1182       C  0.77878936  0.72582110  0.11975171     0.04500
C1183       C  0.74465568  0.71969622  0.11616648    -0.07800
C1184       C  0.72236284  0.74618040  0.11592585    -0.08500
C1185       C  0.73312784  0.77911001  0.11967199    -0.03100
C1186       C  0.76728988  0.78516827  0.12386104     0.03800
N1187       N  0.77974825  0.81787598  0.12897898     0.66300
H1188       H  0.81582232  0.76391122  0.12698003     0.15200
H1189       H  0.69617538  0.74070453  0.11309218     0.14900
N1190       N  0.73218930  0.68683157  0.11217125     0.74000
O1191       O  0.78569189  0.82768951  0.15807462    -0.39500
O1192       O  0.79044483  0.83432428  0.10465096    -0.39400
O1193       O  0.71682746  0.67319683  0.13570946    -0.40100
O1194       O  0.73114958  0.67408224  0.08364603    -0.40200
C1195       C  0.98729202  0.87899826  0.32940792    -0.12500
C1196       C  0.97029351  0.85914802  0.35231678     0.04500
C1197       C  0.98886013  0.84223588  0.37688205    -0.07800
C1198       C  0.02353835  0.84361898  0.37653148    -0.08500
C1199       C  0.04057377  0.86189254  0.35232637    -0.03100
C1200       C  0.02186447  0.88071805  0.32929518     0.03800
N1201       N  0.03744419  0.90146644  0.30521808     0.66300
H1202       H  0.97371070  0.89292662  0.31084063     0.15200
H1203       H  0.03718188  0.82929621  0.39474071     0.14900
N1204       N  0.97310782  0.82243211  0.40161723     0.74000
O1205       O  0.04091443  0.89123036  0.27587984    -0.39500
O1206       O  0.04212214  0.93169594  0.31163094    -0.39400
O1207       O  0.97162783  0.79141036  0.39809045    -0.40100
O1208       O  0.96511347  0.83527348  0.42896554    -0.40200
C1209       C  0.83115480  0.98354288  0.36395258    -0.12500
C1210       C  0.85826976  0.96665183  0.35036802     0.04500
C1211       C  0.88552847  0.98526329  0.33873711    -0.07800
C1212       C  0.88433588  0.01991821  0.33929298    -0.08500
C1213       C  0.85646388  0.03678405  0.35138566    -0.03100
C1214       C  0.82986523  0.01806987  0.36442504     0.03800
N1215       N  0.80057167  0.03345704  0.37693569     0.66300
H1216       H  0.81002598  0.96996071  0.37325327     0.15200
H1217       H  0.90519434  0.03362688  0.32958500     0.14900
N1218       N  0.91439538  0.96955458  0.32569606     0.74000
O1219       O  0.77705936  0.03999537  0.35737910    -0.39500
O1220       O  0.79575157  0.03460136  0.40780239    -0.39400
O1221       O  0.91952574  0.96969232  0.29485346    -0.40100
O1222       O  0.93700116  0.96013974  0.34514255    -0.40200
C1223       C  0.73043431  0.75122740  0.38702853    -0.12500
C1224       C  0.73656690  0.72119029  0.37055926     0.04500
C1225       C  0.76748063  0.71655195  0.35495153    -0.07800
C1226       C  0.79111521  0.74180626  0.35576142    -0.08500
C1227       C  0.78477149  0.77206457  0.37177731    -0.03100
C1228       C  0.75404538  0.77648264  0.38782687     0.03800
N1229       N  0.74628395  0.80630914  0.40523358     0.66300
H1230       H  0.70703475  0.75535387  0.39934884     0.15200
H1231       H  0.81431033  0.73785970  0.34299476     0.14900
N1232       N  0.77486211  0.68707275  0.33680588     0.74000
O1233       O  0.72781466  0.82763600  0.39177852    -0.39500
O1234       O  0.75213634  0.80818953  0.43589824    -0.39400
O1235       O  0.77108973  0.68677896  0.30575662    -0.40100
O1236       O  0.79087897  0.66404298  0.35063275    -0.40200
C1237       C  0.72095662  0.86284812  0.25262581    -0.12500
C1238       C  0.72652283  0.87970673  0.22277618     0.04500
C1239       C  0.75726538  0.89581412  0.21810411    -0.07800
C1240       C  0.78165673  0.89417473  0.24284538    -0.08500
C1241       C  0.77615169  0.87688920  0.27259223    -0.03100
C1242       C  0.74519104  0.86118004  0.27724842     0.03800
N1243       N  0.73785030  0.84280378  0.30658355     0.66300
H1244       H  0.69778680  0.85003709  0.25677759     0.15200
H1245       H  0.80498409  0.90667666  0.23872498     0.14900
N1246       N  0.76401911  0.91445253  0.18874356     0.74000
O1247       O  0.71833049  0.85499789  0.32766337    -0.39500
O1248       O  0.74464036  0.81230630  0.30776345    -0.39400
O1249       O  0.75917752  0.94533521  0.18856461    -0.40100
O1250       O  0.77983442  0.90122930  0.16528610    -0.40200
C1251       C  0.88130031  0.76218482  0.20916235    -0.12500
C1252       C  0.88411660  0.72883970  0.21880916     0.04500
C1253       C  0.88849890  0.72149020  0.25281726    -0.07800
C1254       C  0.88900518  0.74709038  0.27618969    -0.08500
C1255       C  0.88514960  0.78031925  0.26662289    -0.03100
C1256       C  0.88182970  0.78777401  0.23251672     0.03800
N1257       N  0.87895333  0.82115775  0.22101613     0.66300
H1258       H  0.87832590  0.76860312  0.18323425     0.15200
H1259       H  0.89134540  0.74067759  0.30218299     0.14900
N1260       N  0.89066299  0.68812972  0.26442131     0.74000
O1261       O  0.90470049  0.83737480  0.21408485    -0.39500
O1262       O  0.85101597  0.83235893  0.21264335    -0.39400
O1263       O  0.91866891  0.67493648  0.26852317    -0.40100
O1264       O  0.86533086  0.67433952  0.27630816    -0.40200
C1265       C  0.17421133  0.38125469  0.97637880    -0.12500
C1266       C  0.14863184  0.36544380  0.95923471     0.04500
C1267       C  0.12307683  0.35001386  0.97733029    -0.07800
C1268       C  0.12483399  0.34867386  0.01198150    -0.08500
C1269       C  0.15184385  0.36237907  0.02917006    -0.03100
C1270       C  0.17639409  0.37952800  0.01085478     0.03800
N1271       N  0.20475816  0.39389365  0.02639609     0.66300
H1272       H  0.19409519  0.39315365  0.96281963     0.15200
H1273       H  0.10527374  0.33610547  0.02537749     0.14900
N1274       N  0.09517897  0.33570997  0.96089512     0.74000
O1275       O  0.22931707  0.37574118  0.03303761    -0.39500
O1276       O  0.20850982  0.42489710  0.02558186    -0.39400
O1277       O  0.09247031  0.30462446  0.95906089    -0.40100
O1278       O  0.07096776  0.35381993  0.95298993    -0.40200
C1279       C  0.37957883  0.17331521  0.97643941    -0.12500
C1280       C  0.36203684  0.14806061  0.96006998     0.04500
C1281       C  0.34846698  0.12208704  0.97916966    -0.07800
C1282       C  0.34935154  0.12387397  0.01382380    -0.08500
C1283       C  0.36439125  0.15069680  0.03012985    -0.03100
C1284       C  0.38089537  0.17491912  0.01104076     0.03800
N1285       N  0.39687784  0.20276837  0.02603887     0.66300
H1286       H  0.39096190  0.19312465  0.96240494     0.15200
H1287       H  0.33760247  0.10442135  0.02806720     0.14900
N1288       N  0.33324070  0.09400416  0.96395092     0.74000
O1289       O  0.42710512  0.20796385  0.02032811    -0.39500
O1290       O  0.37955823  0.22572085  0.03824916    -0.39400
O1291       O  0.35084783  0.06966625  0.95536362    -0.40100
O1292       O  0.30216636  0.09122597  0.96407844    -0.40200
C1293       C  0.22239945  0.25001523  0.88803988    -0.12500
C1294       C  0.22875935  0.28111725  0.87400511     0.04500
C1295       C  0.26047306  0.28781439  0.86121418    -0.07800
C1296       C  0.28488805  0.26335361  0.86204980    -0.08500
C1297       C  0.27868469  0.23193316  0.87571926    -0.03100
C1298       C  0.24713186  0.22566305  0.88962725     0.03800
N1299       N  0.24001874  0.19522246  0.90626050     0.66300
H1300       H  0.19814476  0.24478668  0.89843094     0.15200
H1301       H  0.30872300  0.26888049  0.85089708     0.14900
N1302       N  0.26753380  0.31841422  0.84487995     0.74000
O1303       O  0.25028839  0.19087393  0.93549765    -0.39500
O1304       O  0.21869839  0.17571289  0.89441197    -0.39400
O1305       O  0.28370180  0.34052039  0.85992427    -0.40100
O1306       O  0.26395491  0.32039079  0.81386869    -0.40200
C1307       C  0.33503600  0.38057807  0.47659317    -0.12500
C1308       C  0.35920059  0.36160506  0.46014590     0.04500
C1309       C  0.38357453  0.34541909  0.47942034    -0.07800
C1310       C  0.38166097  0.34608317  0.51402221    -0.08500
C1311       C  0.35629596  0.36324681  0.53031716    -0.03100
C1312       C  0.33361995  0.38185452  0.51125336     0.03800
N1313       N  0.30803384  0.40088335  0.52654492     0.66300
H1314       H  0.31648834  0.39402865  0.46251775     0.15200
H1315       H  0.39995811  0.33244808  0.52827145     0.14900
N1316       N  0.41036109  0.32791875  0.46451185     0.74000
O1317       O  0.31279244  0.43115718  0.53270529    -0.39500
O1318       O  0.27934269  0.38891753  0.52922745    -0.39400
O1319       O  0.43905916  0.34007907  0.46602170    -0.40100
O1320       O  0.40678156  0.29782909  0.45684525    -0.40200
C1321       C  0.37590506  0.24869885  0.71064261    -0.12500
C1322       C  0.38216220  0.28130566  0.72086809     0.04500
C1323       C  0.38661185  0.28774880  0.75494066    -0.07800
C1324       C  0.38448178  0.26181505  0.77787679    -0.08500
C1325       C  0.37749360  0.22921316  0.76777124    -0.03100
C1326       C  0.37278836  0.22290200  0.73360066     0.03800
N1327       N  0.36330502  0.19092333  0.72177784     0.66300
H1328       H  0.37185502  0.24337844  0.68460534     0.15200
H1329       H  0.38816757  0.26744519  0.80391304     0.14900
N1330       N  0.39378989  0.32034794  0.76670493     0.74000
O1331       O  0.33314882  0.18291055  0.72197311    -0.39500
O1332       O  0.38357452  0.17383449  0.70529277    -0.39400
O1333       O  0.37346715  0.33483413  0.78545534    -0.40100
O1334       O  0.42257474  0.33193955  0.76343411    -0.40200
C1335       C  0.24888030  0.36641325  0.71552745    -0.12500
C1336       C  0.27966347  0.38150745  0.72105660     0.04500
C1337       C  0.28614883  0.39594126  0.75241391    -0.07800
C1338       C  0.26189912  0.39502914  0.77709753    -0.08500
C1339       C  0.23110760  0.38041779  0.77105154    -0.03100
C1340       C  0.22477064  0.36567877  0.74009056     0.03800
N1341       N  0.19485174  0.34787151  0.73401432     0.66300
H1342       H  0.24349699  0.35428132  0.69196000     0.15200
H1343       H  0.26700452  0.40633315  0.80115479     0.14900
N1344       N  0.31681675  0.41203561  0.75948388     0.74000
O1345       O  0.17192097  0.36139480  0.71762277    -0.39500
O1346       O  0.19418234  0.31698816  0.73885070    -0.39400
O1347       O  0.31978957  0.44264804  0.75389542    -0.40100
O1348       O  0.33828699  0.39739937  0.77686986    -0.40200
C1349       C  0.15769453  0.12727845  0.47629427    -0.12500
C1350       C  0.14534936  0.15549862  0.46003228     0.04500
C1351       C  0.13089545  0.18097788  0.47899606    -0.07800
C1352       C  0.13057450  0.17861195  0.51355918    -0.08500
C1353       C  0.14464967  0.15129480  0.53012203    -0.03100
C1354       C  0.15695607  0.12470046  0.51097407     0.03800
N1355       N  0.16863428  0.09490969  0.52619188     0.66300
H1356       H  0.16803775  0.10708067  0.46197409     0.15200
H1357       H  0.12069905  0.19930307  0.52748120     0.14900
N1358       N  0.11906146  0.21076633  0.46383729     0.74000
O1359       O  0.14810216  0.07372142  0.53643126    -0.39500
O1360       O  0.19889768  0.08745385  0.52465220    -0.39400
O1361       O  0.08873762  0.21796373  0.46539822    -0.40100
O1362       O  0.13945120  0.23238222  0.45422669    -0.40200
C1363       C  0.13747952  0.22373748  0.75387477    -0.12500
C1364       C  0.12444259  0.22990246  0.72219039     0.04500
C1365       C  0.11218016  0.26201593  0.71485693    -0.07800
C1366       C  0.11463447  0.28721688  0.73854558    -0.08500
C1367       C  0.12775818  0.28083811  0.77003476    -0.03100
C1368       C  0.13895218  0.24865698  0.77777171     0.03800
N1369       N  0.15352249  0.24129257  0.80921811     0.66300
H1370       H  0.14724760  0.19940618  0.76017028     0.15200
H1371       H  0.10537966  0.31183980  0.73256282     0.14900
N1372       N  0.09610975  0.26923160  0.68408960     0.74000
O1373       O  0.13629172  0.22767464  0.83142766    -0.39500
O1374       O  0.18455085  0.24231047  0.81241008    -0.39400
O1375       O  0.06584431  0.26245103  0.68062725    -0.40100
O1376       O  0.11011294  0.28765807  0.66311563    -0.40200
C1377       C  0.21803056  0.13117187  0.75241174    -0.12500
C1378       C  0.22853598  0.12749364  0.71942815     0.04500
C1379       C  0.26244413  0.12267037  0.71305877    -0.07800
C1380       C  0.28506481  0.12229101  0.73939940    -0.08500
C1381       C  0.27470606  0.12698856  0.77239099    -0.03100
C1382       C  0.24059732  0.13102063  0.77871598     0.03800
N1383       N  0.22828112  0.13511677  0.81162233     0.66300
H1384       H  0.19209075  0.13490273  0.75790062     0.15200
H1385       H  0.31098647  0.11870445  0.73380767     0.14900
N1386       N  0.27426864  0.11730215  0.68013980     0.74000
O1387       O  0.22109677  0.16374012  0.82189276    -0.39500
O1388       O  0.21878408  0.11008830  0.82775910    -0.39400
O1389       O  0.28953040  0.14011846  0.66522511    -0.40100
O1390       O  0.27416896  0.08841308  0.66821314    -0.40200
C1391       C  0.25829842  0.22175989  0.61677816    -0.12500
C1392       C  0.22527631  0.23263897  0.61907324     0.04500
C1393       C  0.21935674  0.26705256  0.62192598    -0.07800
C1394       C  0.24589663  0.28940806  0.62176218    -0.08500
C1395       C  0.27883726  0.27852344  0.61946359    -0.03100
C1396       C  0.28486934  0.24411906  0.61732715     0.03800
N1397       N  0.31775569  0.23129297  0.61585592     0.66300
H1398       H  0.26376661  0.19548626  0.61523610     0.15200
H1399       H  0.24055814  0.31565243  0.62414011     0.14900
N1400       N  0.18669805  0.27991548  0.62581021     0.74000
O1401       O  0.33035069  0.21836246  0.64140679    -0.39500
O1402       O  0.33112030  0.22652967  0.58802974    -0.39400
O1403       O  0.17886359  0.29370624  0.65273585    -0.40100
O1404       O  0.16848098  0.28367644  0.60066200    -0.40200
C1405       C  0.38109949  0.52412372  0.65776694    -0.12500
C1406       C  0.35711269  0.54089955  0.63891761     0.04500
C1407       C  0.33482085  0.52222550  0.61952971    -0.07800
C1408       C  0.33594805  0.48753664  0.62056110    -0.08500
C1409       C  0.35889220  0.47072529  0.64077206    -0.03100
C1410       C  0.38219606  0.48951552  0.65889870     0.03800
N1411       N  0.40593131  0.47407632  0.68017528     0.66300
H1412       H  0.39862692  0.53795950  0.67261898     0.15200
H1413       H  0.31794331  0.47373921  0.60626670     0.14900
N1414       N  0.30939014  0.53791057  0.60051498     0.74000
O1415       O  0.43524644  0.47012123  0.67026406    -0.39500
O1416       O  0.39917500  0.46971214  0.71039013    -0.39400
O1417       O  0.31246222  0.54043811  0.56949862    -0.40100
O1418       O  0.28186030  0.54417533  0.61380487    -0.40200
C1419       C  0.34231197  0.63078787  0.51565062    -0.12500
C1420       C  0.36278366  0.65379435  0.53171696     0.04500
C1421       C  0.38331508  0.67441307  0.51245338    -0.07800
C1422       C  0.38173030  0.67274515  0.47785975    -0.08500
C1423       C  0.35961938  0.65116893  0.46166716    -0.03100
C1424       C  0.34010091  0.62951060  0.48108043     0.03800
N1425       N  0.31635574  0.60751221  0.46665385     0.66300
H1426       H  0.32653914  0.61457663  0.53009839     0.15200
H1427       H  0.39719113  0.68941500  0.46360733     0.14900
N1428       N  0.40428185  0.69868685  0.52741690     0.74000
O1429       O  0.31550842  0.57774768  0.47619935    -0.39500
O1430       O  0.29154702  0.61937128  0.45176866    -0.39400
O1431       O  0.43491121  0.69323909  0.52994899    -0.40100
O1432       O  0.39315069  0.72729492  0.53330172    -0.40200
C1433       C  0.13033270  0.52646793  0.83259137    -0.12500
C1434       C  0.15435357  0.54181348  0.85259052     0.04500
C1435       C  0.17511192  0.52179549  0.87244918    -0.07800
C1436       C  0.17239499  0.48728860  0.87051945    -0.08500
C1437       C  0.15009924  0.47190336  0.84857662    -0.03100
C1438       C  0.12811233  0.49198842  0.83025605     0.03800
N1439       N  0.10400589  0.47813819  0.80840264     0.66300
H1440       H  0.11364586  0.54138801  0.81767417     0.15200
H1441       H  0.18921495  0.47239080  0.88528100     0.14900
N1442       N  0.20057687  0.53559685  0.89295333     0.74000
O1443       O  0.07375847  0.48186709  0.81502548    -0.39500
O1444       O  0.11236825  0.47010550  0.77937575    -0.39400
O1445       O  0.20405384  0.52519820  0.92226864    -0.40100
O1446       O  0.22381270  0.55176824  0.87978281    -0.40200
C1447       C  0.12815680  0.67405193  0.97999134    -0.12500
C1448       C  0.14953642  0.65269791  0.96287128     0.04500
C1449       C  0.16904986  0.63013826  0.98131803    -0.07800
C1450       C  0.16800676  0.63038596  0.01595888    -0.08500
C1451       C  0.14807254  0.65300699  0.03313095    -0.03100
C1452       C  0.12731241  0.67449706  0.01470234     0.03800
N1453       N  0.10550678  0.69727684  0.03072771     0.66300
H1454       H  0.11276636  0.69141134  0.96643072     0.15200
H1455       H  0.18386878  0.61339742  0.02944695     0.14900
N1456       N  0.18990366  0.60647533  0.96538262     0.74000
O1457       O  0.11417585  0.72706998  0.03448252    -0.39500
O1458       O  0.07590478  0.68905296  0.03614043    -0.39400
O1459       O  0.22003121  0.61319110  0.96080209    -0.40100
O1460       O  0.18029725  0.57685036  0.96309726    -0.40200
C1461       C  0.22417065  0.62790256  0.73870367    -0.12500
C1462       C  0.23294111  0.62961519  0.77232580     0.04500
C1463       C  0.26681985  0.63064638  0.78087831    -0.07800
C1464       C  0.29082836  0.63042110  0.75600255    -0.08500
C1465       C  0.28204751  0.63005416  0.72236360    -0.03100
C1466       C  0.24812470  0.62890329  0.71378646     0.03800
N1467       N  0.23737786  0.63074893  0.68006355     0.66300
H1468       H  0.19826011  0.62682671  0.73151259     0.15200
H1469       H  0.31674617  0.63101691  0.76323492     0.14900
N1470       N  0.27736537  0.63379901  0.81451748     0.74000
O1471       O  0.22798085  0.60481942  0.66537041    -0.39500
O1472       O  0.23156802  0.65867711  0.66721781    -0.39400
O1473       O  0.28400591  0.60811573  0.83108800    -0.40100
O1474       O  0.28682107  0.66167071  0.82498904    -0.40200
C1475       C  0.38015746  0.98755252  0.82940870    -0.12500
C1476       C  0.36152595  0.97055914  0.85332878     0.04500
C1477       C  0.34406833  0.98909611  0.87732069    -0.07800
C1478       C  0.34344136  0.02373864  0.87517801    -0.08500
C1479       C  0.36011785  0.04049557  0.84963312    -0.03100
C1480       C  0.37923521  0.02201799  0.82692363     0.03800
N1481       N  0.39546487  0.03729555  0.79934341     0.66300
H1482       H  0.39405190  0.97392075  0.81094346     0.15200
H1483       H  0.32917966  0.03756666  0.89321469     0.14900
N1484       N  0.32592950  0.97330224  0.90327358     0.74000
O1485       O  0.42534509  0.03046619  0.79350728    -0.39500
O1486       O  0.37833060  0.05086052  0.77694500    -0.39400
O1487       O  0.33920424  0.96945827  0.93134525    -0.40100
O1488       O  0.29526033  0.96856827  0.89996406    -0.40200
C1489       C  0.33940460  0.87925845  0.97627049    -0.12500
C1490       C  0.36203485  0.85834361  0.96017253     0.04500
C1491       C  0.38420198  0.83939568  0.97951636    -0.07800
C1492       C  0.38215173  0.84046852  0.01409905    -0.08500
C1493       C  0.35807271  0.85979308  0.03012221    -0.03100
C1494       C  0.33684344  0.87982350  0.01079859     0.03800
N1495       N  0.31078093  0.89880941  0.02539337     0.66300
H1496       H  0.32224789  0.89416785  0.96191903     0.15200
H1497       H  0.39892575  0.82516443  0.02849144     0.14900
N1498       N  0.40756264  0.81740437  0.96463372     0.74000
O1499       O  0.30877913  0.92940492  0.01927593    -0.39500
O1500       O  0.28604720  0.88402973  0.03741023    -0.39400
O1501       O  0.43764464  0.82555563  0.96316303    -0.40100
O1502       O  0.39925091  0.78794457  0.95832049    -0.40200
C1503       C  0.38906651  0.74661039  0.77999835    -0.12500
C1504       C  0.39065611  0.78017184  0.77100599     0.04500
C1505       C  0.39434503  0.78829618  0.73710110    -0.07800
C1506       C  0.39374564  0.76322386  0.71319842    -0.08500
C1507       C  0.39013347  0.72982821  0.72213430    -0.03100
C1508       C  0.38881063  0.72151997  0.75613480     0.03800
N1509       N  0.38548296  0.68797398  0.76693439     0.66300
H1510       H  0.38753262  0.73960285  0.80600304     0.15200
H1511       H  0.39577359  0.77010919  0.68718845     0.14900
N1512       N  0.39787695  0.82181058  0.72628725     0.74000
O1513       O  0.41107091  0.67059576  0.77131078    -0.39500
O1514       O  0.35830438  0.67834971  0.77884481    -0.39400
O1515       O  0.42598545  0.83534863  0.72723867    -0.40100
O1516       O  0.37496771  0.83520804  0.70977991    -0.40200
C1517       C  0.24799750  0.79041248  0.87318884    -0.12500
C1518       C  0.28149516  0.78124921  0.87177772     0.04500
C1519       C  0.28974949  0.74727302  0.87314230    -0.07800
C1520       C  0.26481224  0.72349698  0.87556786    -0.08500
C1521       C  0.23129914  0.73247383  0.87574559    -0.03100
C1522       C  0.22296944  0.76651553  0.87525718     0.03800
N1523       N  0.18932552  0.77734560  0.87604758     0.66300
H1524       H  0.24105701  0.81638215  0.87255904     0.15200
H1525       H  0.27185680  0.69758348  0.87636351     0.14900
N1526       N  0.32309507  0.73620415  0.86952858     0.74000
O1527       O  0.17542105  0.78218110  0.90360457    -0.39500
O1528       O  0.17577452  0.78780884  0.84985437    -0.39400
O1529       O  0.33799735  0.72361748  0.89398662    -0.40100
O1530       O  0.33483214  0.73258222  0.84081753    -0.40200
C1531       C  0.17577050  0.88109870  0.51566335    -0.12500
C1532       C  0.15149599  0.86191501  0.53165584     0.04500
C1533       C  0.12667144  0.84683954  0.51214717    -0.07800
C1534       C  0.12800398  0.84925631  0.47759855    -0.08500
C1535       C  0.15376369  0.86622716  0.46163656    -0.03100
C1536       C  0.17736663  0.88314696  0.48108080     0.03800
N1537       N  0.20459287  0.90036360  0.46642818     0.66300
H1538       H  0.19481148  0.89344383  0.53000063     0.15200
H1539       H  0.10924045  0.83666655  0.46308203     0.14900
N1540       N  0.10030212  0.82832695  0.52663757     0.74000
O1541       O  0.20937549  0.93040754  0.47358907    -0.39500
O1542       O  0.22764375  0.88400939  0.45315711    -0.39400
O1543       O  0.07102827  0.83865703  0.52332507    -0.40100
O1544       O  0.10523471  0.79867379  0.53528751    -0.40200
C1545       C  0.13213779  0.98697250  0.66628953    -0.12500
C1546       C  0.14861308  0.97050349  0.64042240     0.04500
C1547       C  0.16190265  0.98952521  0.61421223    -0.07800
C1548       C  0.16088422  0.02419575  0.61580653    -0.08500
C1549       C  0.14624872  0.04050774  0.64282072    -0.03100
C1550       C  0.13108378  0.02150172  0.66791827     0.03800
N1551       N  0.11706675  0.03658776  0.69675649     0.66300
H1552       H  0.12143556  0.97307009  0.68657198     0.15200
H1553       H  0.17204216  0.03844254  0.59600971     0.14900
N1554       N  0.17689777  0.97422258  0.58606087     0.74000
O1555       O  0.08739952  0.03060699  0.70431255    -0.39500
O1556       O  0.13590600  0.04956107  0.71807165    -0.39400
O1557       O  0.15934085  0.96686670  0.56124969    -0.40100
O1558       O  0.20799394  0.97314500  0.58377987    -0.40200
C1559       C  0.26653676  0.79037705  0.62885643    -0.12500
C1560       C  0.23386473  0.78262921  0.61987647     0.04500
C1561       C  0.22630809  0.74964231  0.61052679    -0.07800
C1562       C  0.25097295  0.72540351  0.61114605    -0.08500
C1563       C  0.28338221  0.73316231  0.62058877    -0.03100
C1564       C  0.29121617  0.76610984  0.62919413     0.03800
N1565       N  0.32351227  0.77493098  0.64054663     0.66300
H1566       H  0.27300531  0.81535466  0.63633426     0.15200
H1567       H  0.24463811  0.70019721  0.60430595     0.14900
N1568       N  0.19368093  0.74000005  0.60088943     0.74000
O1569       O  0.34458017  0.78558088  0.62011674    -0.39500
O1570       O  0.32854801  0.77860883  0.67119142    -0.39400
O1571       O  0.18658884  0.73753676  0.57052066    -0.40100
O1572       O  0.17411382  0.72841617  0.62229302    -0.40200
C1573       C  0.14019822  0.74772962  0.71490466    -0.12500
C1574       C  0.12729421  0.77940462  0.72071447     0.04500
C1575       C  0.11446918  0.78680036  0.75260810    -0.07800
C1576       C  0.11605759  0.76301168  0.77789535    -0.08500
C1577       C  0.12931131  0.73155097  0.77187121    -0.03100
C1578       C  0.14127732  0.72396992  0.73996318     0.03800
N1579       N  0.15771787  0.69341026  0.73341156     0.66300
H1580       H  0.15064651  0.74148451  0.69094170     0.15200
H1581       H  0.10645923  0.76902341  0.80228012     0.14900
N1582       N  0.09946492  0.81805863  0.75976891     0.74000
O1583       O  0.14193735  0.66998553  0.72004853    -0.39500
O1584       O  0.18890211  0.69290197  0.73329622    -0.39400
O1585       O  0.06939661  0.82265900  0.75272092    -0.40100
O1586       O  0.11416295  0.83842697  0.77835219    -0.40200
C1587       C  0.26152595  0.89235162  0.71385271    -0.12500
C1588       C  0.22970372  0.88222513  0.72385372     0.04500
C1589       C  0.22507624  0.87253108  0.75721107    -0.07800
C1590       C  0.25164521  0.87350204  0.77949149    -0.08500
C1591       C  0.28331691  0.88348178  0.76936085    -0.03100
C1592       C  0.28815751  0.89315276  0.73616840     0.03800
N1593       N  0.31948046  0.90524988  0.72504018     0.66300
H1594       H  0.26587726  0.90003650  0.68849170     0.15200
H1595       H  0.24760897  0.86550211  0.80483473     0.14900
N1596       N  0.19388455  0.86078553  0.76885755     0.74000
O1597       O  0.33296469  0.89247356  0.69992755    -0.39500
O1598       O  0.33038197  0.93233041  0.73620663    -0.39400
O1599       O  0.18860141  0.83000594  0.77028340    -0.40100
O1600       O  0.17465401  0.88044390  0.78364132    -0.40200
C1601       C  0.52283949  0.34316365  0.61841766    -0.12500
C1602       C  0.53856057  0.36146570  0.64360989     0.04500
C1603       C  0.51908744  0.38176963  0.66437553    -0.07800
C1604       C  0.48472079  0.38182679  0.66075502    -0.08500
C1605       C  0.46880240  0.36146823  0.63741981    -0.03100
C1606       C  0.48834634  0.34321653  0.61495221     0.03800
N1607       N  0.47369804  0.32383659  0.58919139     0.66300
H1608       H  0.53738381  0.32815384  0.60157373     0.15200
H1609       H  0.47026896  0.39655442  0.67792319     0.14900
N1610       N  0.53320677  0.40053321  0.69096474     0.74000
O1611       O  0.46538192  0.33758128  0.56233380    -0.39500
O1612       O  0.47417083  0.29263494  0.59105753    -0.39400
O1613       O  0.52573358  0.43073343  0.69401740    -0.40100
O1614       O  0.54631438  0.38557785  0.71513702    -0.40200
C1615       C  0.67595762  0.37442025  0.51900759    -0.12500
C1616       C  0.64951733  0.35898728  0.53557780     0.04500
C1617       C  0.62351936  0.34528180  0.51653230    -0.07800
C1618       C  0.62537217  0.34564098  0.48189255    -0.08500
C1619       C  0.65259426  0.35966149  0.46555746    -0.03100
C1620       C  0.67781495  0.37467633  0.48443538     0.03800
N1621       N  0.70694879  0.38756811  0.46910842     0.66300
H1622       H  0.69627428  0.38511538  0.53289714     0.15200
H1623       H  0.60567464  0.33422061  0.46766909     0.14900
N1624       N  0.59559458  0.32991218  0.53179446     0.74000
O1625       O  0.71093073  0.41848676  0.46699392    -0.39500
O1626       O  0.73102895  0.36850749  0.46343798    -0.39400
O1627       O  0.56955481  0.34647487  0.53651321    -0.40100
O1628       O  0.59516038  0.29890171  0.53574523    -0.40200
C1629       C  0.52056001  0.12960215  0.83209081    -0.12500
C1630       C  0.53738216  0.15147907  0.85319976     0.04500
C1631       C  0.51859683  0.17244358  0.87403639    -0.07800
C1632       C  0.48402947  0.17242461  0.87197928    -0.08500
C1633       C  0.46727106  0.15192537  0.84943473    -0.03100
C1634       C  0.48598630  0.12964187  0.82994455     0.03800
N1635       N  0.47052843  0.10616440  0.80845063     0.66300
H1636       H  0.53432137  0.11290970  0.81623836     0.15200
H1637       H  0.47030060  0.18921187  0.88776358     0.14900
N1638       N  0.53394407  0.19321556  0.89822424     0.74000
O1639       O  0.46167737  0.11505819  0.77978074    -0.39500
O1640       O  0.47375248  0.07569667  0.81464298    -0.39400
O1641       O  0.54193567  0.22242582  0.89047454    -0.40100
O1642       O  0.53134748  0.18563109  0.92843961    -0.40200
C1643       C  0.66686588  0.12640075  0.98012582    -0.12500
C1644       C  0.64715174  0.15037604  0.96445625     0.04500
C1645       C  0.62685552  0.17105781  0.98403639    -0.07800
C1646       C  0.62810068  0.16834134  0.01851525    -0.08500
C1647       C  0.64986355  0.14621662  0.03429767    -0.03100
C1648       C  0.66873830  0.12426630  0.01463426     0.03800
N1649       N  0.69090572  0.10049058  0.02876808     0.66300
H1650       H  0.68210315  0.10989797  0.96547510     0.15200
H1651       H  0.61299791  0.18504719  0.03306157     0.14900
N1652       N  0.60645388  0.19641888  0.96986992     0.74000
O1653       O  0.68877908  0.07064497  0.01973473    -0.39500
O1654       O  0.71717705  0.11030792  0.04254178    -0.39400
O1655       O  0.57675920  0.19898080  0.97910073    -0.40100
O1656       O  0.61981915  0.22055206  0.95517988    -0.40200
C1657       C  0.61940501  0.22035709  0.74356230    -0.12500
C1658       C  0.62474465  0.23105789  0.77632025     0.04500
C1659       C  0.62867517  0.26521123  0.78255996    -0.07800
C1660       C  0.62695959  0.28766964  0.75637581    -0.08500
C1661       C  0.62340294  0.27683929  0.72352955    -0.03100
C1662       C  0.61941030  0.24278309  0.71717866     0.03800
N1663       N  0.61508117  0.23056463  0.68423220     0.66300
H1664       H  0.61632417  0.19423551  0.73811557     0.15200
H1665       H  0.62987072  0.31381533  0.76173674     0.14900
N1666       N  0.63583227  0.27749735  0.81499840     0.74000
O1667       O  0.63986307  0.22046427  0.66817720    -0.39500
O1668       O  0.58637870  0.22402885  0.67382821    -0.39400
O1669       O  0.66540117  0.28294271  0.82341939    -0.40100
O1670       O  0.61271904  0.28278924  0.83528620    -0.40200
C1671       C  0.98632300  0.37994239  0.82862047    -0.12500
C1672       C  0.97008098  0.36021851  0.85205434     0.04500
C1673       C  0.98895279  0.34258583  0.87558460    -0.07800
C1674       C  0.02342222  0.34333081  0.87398417    -0.08500
C1675       C  0.03980127  0.36121042  0.84903885    -0.03100
C1676       C  0.02076288  0.38036156  0.82653437     0.03800
N1677       N  0.03551877  0.39955379  0.80065623     0.66300
H1678       H  0.97219539  0.39374414  0.81036428     0.15200
H1679       H  0.03734707  0.32896672  0.89194484     0.14900
N1680       N  0.97357858  0.32420673  0.90158342     0.74000
O1681       O  0.04504818  0.38516925  0.77459428    -0.39500
O1682       O  0.03030212  0.43035603  0.79980043    -0.39400
O1683       O  0.97183129  0.29306022  0.89956311    -0.40100
O1684       O  0.96842671  0.33813482  0.92907271    -0.40200
C1685       C  0.84071992  0.37559180  0.97835659    -0.12500
C1686       C  0.85993402  0.35152289  0.96229110     0.04500
C1687       C  0.87901882  0.32941947  0.98158216    -0.07800
C1688       C  0.87791443  0.33149564  0.01617569    -0.08500
C1689       C  0.85721401  0.35437989  0.03232124    -0.03100
C1690       C  0.83876673  0.37697079  0.01290773     0.03800
N1691       N  0.81667140  0.40045708  0.02745936     0.66300
H1692       H  0.82599154  0.39286383  0.96394491     0.15200
H1693       H  0.89233311  0.31390040  0.03049124     0.14900
N1694       N  0.89760394  0.30311556  0.96679780     0.74000
O1695       O  0.82029693  0.43082467  0.02100161    -0.39500
O1696       O  0.78958239  0.39056300  0.03939864    -0.39400
O1697       O  0.92788413  0.29990593  0.97370219    -0.40100
O1698       O  0.88251447  0.27941060  0.95310784    -0.40200
C1699       C  0.75750091  0.39330911  0.71909564    -0.12500
C1700       C  0.72749534  0.37769525  0.72759071     0.04500
C1701       C  0.72493448  0.36233606  0.75896465    -0.07800
C1702       C  0.75139573  0.36372029  0.78119076    -0.08500
C1703       C  0.78112378  0.37917122  0.77254806    -0.03100
C1704       C  0.78428856  0.39389153  0.74113636     0.03800
N1705       N  0.81395326  0.41070679  0.73184443     0.66300
H1706       H  0.76032883  0.40521158  0.69514694     0.15200
H1707       H  0.74910605  0.35145366  0.80505321     0.14900
N1708       N  0.69678140  0.34304819  0.76782861     0.74000
O1709       O  0.83320026  0.39767945  0.71100618    -0.39500
O1710       O  0.81762423  0.44079123  0.73946080    -0.39400
O1711       O  0.69733991  0.31224600  0.76257623    -0.40100
O1712       O  0.67567465  0.35492590  0.78752341    -0.40200
C1713       C  0.74925680  0.28403442  0.88604393    -0.12500
C1714       C  0.77999861  0.27678307  0.87185985     0.04500
C1715       C  0.78626065  0.24457253  0.86006935    -0.07800
C1716       C  0.76172385  0.22036295  0.86229387    -0.08500
C1717       C  0.73075567  0.22738652  0.87646321    -0.03100
C1718       C  0.72488393  0.25959816  0.88910150     0.03800
N1719       N  0.69496464  0.26766485  0.90614874     0.66300
H1720       H  0.74448380  0.30868354  0.89578357     0.15200
H1721       H  0.76683407  0.19602370  0.85200237     0.14900
N1722       N  0.81658427  0.23665953  0.84374761     0.74000
O1723       O  0.69070552  0.25733902  0.93536306    -0.39500
O1724       O  0.67612427  0.28987858  0.89478038    -0.39400
O1725       O  0.83839117  0.22011651  0.85885979    -0.40100
O1726       O  0.81875793  0.24045427  0.81278330    -0.40200
C1727       C  0.87475146  0.17277734  0.48046718    -0.12500
C1728       C  0.85894038  0.14690101  0.46335738     0.04500
C1729       C  0.84338213  0.12157505  0.48193785    -0.07800
C1730       C  0.84268405  0.12346113  0.51659926    -0.08500
C1731       C  0.85709167  0.15023656  0.53341574    -0.03100
C1732       C  0.87351781  0.17497728  0.51499626     0.03800
N1733       N  0.88626197  0.20415387  0.53054893     0.66300
H1734       H  0.88666150  0.19266211  0.46693515     0.15200
H1735       H  0.83014846  0.10416053  0.53041837     0.14900
N1736       N  0.82705700  0.09443465  0.46616721     0.74000
O1737       O  0.91662838  0.21088143  0.52820358    -0.39500
O1738       O  0.86644947  0.22629082  0.54020742    -0.39400
O1739       O  0.84139693  0.06672712  0.46434990    -0.40100
O1740       O  0.79658123  0.09644426  0.45968361    -0.40200
C1741       C  0.98435327  0.12568875  0.66340331    -0.12500
C1742       C  0.96618495  0.14591623  0.64180357     0.04500
C1743       C  0.98348949  0.16548922  0.61848849    -0.07800
C1744       C  0.01810443  0.16650222  0.61893502    -0.08500
C1745       C  0.03630657  0.14807888  0.64213954    -0.03100
C1746       C  0.01897987  0.12653310  0.66381094     0.03800
N1747       N  0.03594793  0.10515757  0.68639835     0.66300
H1748       H  0.97165314  0.11002092  0.68111171     0.15200
H1749       H  0.03070189  0.18248989  0.60144767     0.14900
N1750       N  0.96635193  0.18391672  0.59359937     0.74000
O1751       O  0.04285138  0.11546385  0.71511321    -0.39500
O1752       O  0.03651131  0.07444295  0.68068484    -0.39400
O1753       O  0.96248325  0.21474200  0.59706814    -0.40100
O1754       O  0.96151568  0.17086707  0.56560880    -0.40200
C1755       C  0.78565102  0.25927833  0.62349577    -0.12500
C1756       C  0.77463657  0.22621302  0.62349493     0.04500
C1757       C  0.74025462  0.21992629  0.62448749    -0.07800
C1758       C  0.71799970  0.24646447  0.62531513    -0.08500
C1759       C  0.72904585  0.27944838  0.62522616    -0.03100
C1760       C  0.76335042  0.28573589  0.62459654     0.03800
N1761       N  0.77608271  0.31876321  0.62476743     0.66300
H1762       H  0.81183864  0.26479094  0.62326547     0.15200
H1763       H  0.69180057  0.24111846  0.62599279     0.14900
N1764       N  0.72730043  0.18693276  0.62401583     0.74000
O1765       O  0.78419400  0.33204309  0.65189847    -0.39500
O1766       O  0.78472469  0.33211056  0.59785507    -0.39400
O1767       O  0.70750211  0.17777681  0.64636535    -0.40100
O1768       O  0.73042687  0.16948703  0.59826550    -0.40200
C1769       C  0.74859136  0.14327728  0.71842960    -0.12500
C1770       C  0.77730540  0.12479349  0.72449429     0.04500
C1771       C  0.78061623  0.10781841  0.75478273    -0.07800
C1772       C  0.75524710  0.10960909  0.77850719    -0.08500
C1773       C  0.72628793  0.12818899  0.77254314    -0.03100
C1774       C  0.72346337  0.14559262  0.74219890     0.03800
N1775       N  0.69634839  0.16748784  0.73600367     0.66300
H1776       H  0.74636412  0.15728862  0.69557658     0.15200
H1777       H  0.75807857  0.09601236  0.80152863     0.14900
N1778       N  0.80910984  0.08781076  0.76121169     0.74000
O1779       O  0.69519378  0.19528353  0.75026437    -0.39500
O1780       O  0.67457071  0.15991722  0.71490533    -0.39400
O1781       O  0.82979572  0.09657792  0.78293729    -0.40100
O1782       O  0.81477469  0.06255729  0.74367580    -0.40200
C1783       C  0.87974200  0.26029271  0.71413283    -0.12500
C1784       C  0.88277988  0.22677921  0.72294181     0.04500
C1785       C  0.88893945  0.21856864  0.75649162    -0.07800
C1786       C  0.89039903  0.24364088  0.78034924    -0.08500
C1787       C  0.88590614  0.27701174  0.77162490    -0.03100
C1788       C  0.88135959  0.28529505  0.73794746     0.03800
N1789       N  0.87593977  0.31871614  0.72767852     0.66300
H1790       H  0.87533484  0.26731743  0.68850445     0.15200
H1791       H  0.89418751  0.23679407  0.80613047     0.14900
N1792       N  0.89236732  0.18495128  0.76710413     0.74000
O1793       O  0.90023241  0.33634278  0.71910718    -0.39500
O1794       O  0.84697979  0.32813211  0.72079119    -0.39400
O1795       O  0.92083455  0.17310772  0.77207844    -0.40100
O1796       O  0.86727535  0.16920605  0.77693470    -0.40200
C1797       C  0.52458132  0.62350822  0.65707807    -0.12500
C1798       C  0.54097654  0.64737866  0.63770570     0.04500
C1799       C  0.52208931  0.66806393  0.61678311    -0.07800
C1800       C  0.48757698  0.66666164  0.61794841    -0.08500
C1801       C  0.47112173  0.64473304  0.63944695    -0.03100
C1802       C  0.49001655  0.62170888  0.65779254     0.03800
N1803       N  0.47467259  0.59735456  0.67838628     0.66300
H1804       H  0.53866745  0.60660956  0.67252747     0.15200
H1805       H  0.47360431  0.68399786  0.60288497     0.14900
N1806       N  0.53732888  0.69229198  0.59598002     0.74000
O1807       O  0.46638831  0.56980128  0.66617412    -0.39500
O1808       O  0.47399069  0.60134963  0.70939267    -0.39400
O1809       O  0.54014831  0.68678409  0.56533121    -0.40100
O1810       O  0.54262832  0.72104121  0.60703410    -0.40200
C1811       C  0.62916794  0.52122482  0.66825399    -0.12500
C1812       C  0.64640055  0.53782041  0.64318352     0.04500
C1813       C  0.66233274  0.51924079  0.61835987    -0.07800
C1814       C  0.66294126  0.48468225  0.62036525    -0.08500
C1815       C  0.64767125  0.46798872  0.64679260    -0.03100
C1816       C  0.62971488  0.48671023  0.67044071     0.03800
N1817       N  0.61237866  0.47145725  0.69728419     0.66300
H1818       H  0.61655761  0.53514049  0.68740376     0.15200
H1819       H  0.67596675  0.47097351  0.60136498     0.14900
N1820       N  0.67703260  0.53504423  0.59036662     0.74000
O1821       O  0.62797543  0.46387099  0.72333230    -0.39500
O1822       O  0.58127874  0.47361346  0.69831668    -0.39400
O1823       O  0.70809407  0.53723345  0.58843009    -0.40100
O1824       O  0.65955374  0.54066195  0.56504655    -0.40200
C1825       C  0.63340669  0.66946730  0.51485142    -0.12500
C1826       C  0.65562033  0.64854615  0.53158564     0.04500
C1827       C  0.67599337  0.62722132  0.51262493    -0.07800
C1828       C  0.67402592  0.62785700  0.47789071    -0.08500
C1829       C  0.65287566  0.64991763  0.46114765    -0.03100
C1830       C  0.63205752  0.67063508  0.48019027     0.03800
N1831       N  0.61028578  0.69406822  0.46501779     0.66300
H1832       H  0.61740019  0.68592715  0.52879590     0.15200
H1833       H  0.69030404  0.61174635  0.46387000     0.14900
N1834       N  0.70028849  0.60627659  0.52781009     0.74000
O1835       O  0.57954692  0.69141161  0.46956587    -0.39500
O1836       O  0.62182643  0.72095434  0.45401649    -0.39400
O1837       O  0.70177155  0.57609522  0.51979246    -0.40100
O1838       O  0.72441777  0.61917438  0.54290681    -0.40200
C1839       C  0.83991924  0.51993587  0.87392750    -0.12500
C1840       C  0.86328006  0.53625477  0.85388266     0.04500
C1841       C  0.88740639  0.51701988  0.83740083    -0.07800
C1842       C  0.88563600  0.48240817  0.83854497    -0.08500
C1843       C  0.86078218  0.46618322  0.85664023    -0.03100
C1844       C  0.83871283  0.48532250  0.87572928     0.03800
N1845       N  0.81357753  0.47013403  0.89540813     0.66300
H1846       H  0.82163305  0.53405443  0.88756734     0.15200
H1847       H  0.90347298  0.46810786  0.82448215     0.14900
N1848       N  0.91323370  0.53203681  0.81850126     0.74000
O1849       O  0.81904398  0.46412378  0.92562440    -0.39500
O1850       O  0.78461884  0.46736558  0.88405440    -0.39400
O1851       O  0.94039062  0.53890576  0.83232911    -0.40100
O1852       O  0.91093670  0.53338659  0.78733609    -0.40200
C1853       C  0.98934248  0.62884377  0.82682333    -0.12500
C1854       C  0.97222831  0.64751163  0.85078280     0.04500
C1855       C  0.99083367  0.66462972  0.87509211    -0.07800
C1856       C  0.02541357  0.66393258  0.87401068    -0.08500
C1857       C  0.04233517  0.64689683  0.84895563    -0.03100
C1858       C  0.02394150  0.62848836  0.82561792     0.03800
N1859       N  0.03979910  0.61129436  0.79907323     0.66300
H1860       H  0.97583065  0.61525757  0.80797575     0.15200
H1861       H  0.03915955  0.67796370  0.89237115     0.14900
N1862       N  0.97538618  0.68399539  0.90034352     0.74000
O1863       O  0.04448947  0.58045829  0.80119345    -0.39500
O1864       O  0.04417314  0.62576152  0.77169043    -0.39400
O1865       O  0.98083654  0.67698001  0.93034014    -0.40100
O1866       O  0.96364577  0.71206687  0.89309082    -0.40200
C1867       C  0.84421819  0.62366221  0.97778968    -0.12500
C1868       C  0.86092718  0.64906608  0.96079255     0.04500
C1869       C  0.87904134  0.67264704  0.97948844    -0.07800
C1870       C  0.87903335  0.67097898  0.01409450    -0.08500
C1871       C  0.86062137  0.64689866  0.03094179    -0.03100
C1872       C  0.84380085  0.62248504  0.01247003     0.03800
N1873       N  0.82634987  0.59620821  0.02850212     0.66300
H1874       H  0.83061254  0.60496089  0.96417799     0.15200
H1875       H  0.89213871  0.68992827  0.02788152     0.14900
N1876       N  0.89669574  0.69923991  0.96414063     0.74000
O1877       O  0.79522267  0.59724828  0.03038322    -0.39500
O1878       O  0.84135903  0.56972927  0.03565516    -0.39400
O1879       O  0.88102698  0.72466563  0.95485193    -0.40100
O1880       O  0.92758621  0.70113367  0.96807786    -0.40200
C1881       C  0.74806241  0.61171230  0.77979001    -0.12500
C1882       C  0.77992711  0.62323752  0.77231190     0.04500
C1883       C  0.78686213  0.63396745  0.73985965    -0.07800
C1884       C  0.76216775  0.63348818  0.71574325    -0.08500
C1885       C  0.73015134  0.62212485  0.72290073    -0.03100
C1886       C  0.72333025  0.61047037  0.75533517     0.03800
N1887       N  0.69198943  0.59637001  0.76364623     0.66300
H1888       H  0.74250322  0.60301813  0.80466459     0.15200
H1889       H  0.76817693  0.64287149  0.69123478     0.14900
N1890       N  0.81836801  0.64740621  0.73140195     0.74000
O1891       O  0.67245476  0.61201098  0.78229993    -0.39500
O1892       O  0.68685248  0.56605453  0.75804867    -0.39400
O1893       O  0.83883562  0.62967791  0.71587118    -0.40100
O1894       O  0.82267400  0.67832991  0.73279973    -0.40200
C1895       C  0.52661453  0.88510628  0.83658072    -0.12500
C1896       C  0.54284901  0.86017476  0.85473767     0.04500
C1897       C  0.52379237  0.83842095  0.87430641    -0.07800
C1898       C  0.48924239  0.84018568  0.87313097    -0.08500
C1899       C  0.47289555  0.86346192  0.85287954    -0.03100
C1900       C  0.49206261  0.88717042  0.83575579     0.03800
N1901       N  0.47701700  0.91262219  0.81625039     0.66300
H1902       H  0.54083921  0.90269564  0.82209197     0.15200
H1903       H  0.47515378  0.82214728  0.88718071     0.14900
N1904       N  0.53890631  0.81282984  0.89359636     0.74000
O1905       O  0.47001019  0.94006542  0.82946038    -0.39500
O1906       O  0.47585750  0.90974519  0.78513033    -0.39400
O1907       O  0.54181570  0.81635526  0.92453857    -0.40100
O1908       O  0.54454219  0.78494689  0.88065226    -0.40200
C1909       C  0.66609372  0.98560145  0.87491919    -0.12500
C1910       C  0.64956554  0.96960504  0.84878165     0.04500
C1911       C  0.63062002  0.98872624  0.82647594    -0.07800
C1912       C  0.62994046  0.02317052  0.82961739    -0.08500
C1913       C  0.64804808  0.03946066  0.85455242    -0.03100
C1914       C  0.66524401  0.02014233  0.87820624     0.03800
N1915       N  0.68280369  0.03509030  0.90507847     0.66300
H1916       H  0.68018964  0.97121214  0.89275608     0.15200
H1917       H  0.61625363  0.03730481  0.81127683     0.14900
N1918       N  0.61408336  0.97390966  0.79888212     0.74000
O1919       O  0.66780082  0.04163865  0.93168469    -0.39500
O1920       O  0.71392697  0.03706772  0.90410057    -0.39400
O1921       O  0.58302587  0.97093169  0.79919819    -0.40100
O1922       O  0.62976986  0.96866226  0.77238272    -0.40200
C1923       C  0.62838852  0.84721943  0.97490170    -0.12500
C1924       C  0.65553724  0.86192899  0.95907435     0.04500
C1925       C  0.67997540  0.87759195  0.97841365    -0.07800
C1926       C  0.67814462  0.87607091  0.01298075    -0.08500
C1927       C  0.65203585  0.85947661  0.02902373    -0.03100
C1928       C  0.62613428  0.84636191  0.00949312     0.03800
N1929       N  0.59750626  0.83185894  0.02420040     0.66300
H1930       H  0.60886707  0.83592932  0.96027161     0.15200
H1931       H  0.69809932  0.88699727  0.02726131     0.14900
N1932       N  0.70803019  0.89305789  0.96346229     0.74000
O1933       O  0.59454274  0.80075291  0.02487790    -0.39500
O1934       O  0.57277449  0.84987393  0.03043378    -0.39400
O1935       O  0.70897745  0.92419042  0.96077967    -0.40100
O1936       O  0.73373302  0.87626073  0.95780210    -0.40200
C1937       C  0.63322349  0.74690543  0.78022489    -0.12500
C1938       C  0.62530292  0.77917011  0.77011848     0.04500
C1939       C  0.61641895  0.78487423  0.73673646    -0.07800
C1940       C  0.61737995  0.75860097  0.71400167    -0.08500
C1941       C  0.62620059  0.72634104  0.72391581    -0.03100
C1942       C  0.63363175  0.72063358  0.75772720     0.03800
N1943       N  0.64257391  0.68856244  0.76969769     0.66300
H1944       H  0.64012956  0.74206592  0.80582485     0.15200
H1945       H  0.61092423  0.76354722  0.68833015     0.14900
N1946       N  0.60512913  0.81672639  0.72582895     0.74000
O1947       O  0.62029194  0.66907274  0.77962078    -0.39500
O1948       O  0.67240927  0.68258802  0.77670639    -0.39400
O1949       O  0.61593081  0.82886948  0.69911796    -0.40100
O1950       O  0.58045960  0.82994148  0.73967238    -0.40200
C1951       C  0.72479218  0.74529386  0.86911272    -0.12500
C1952       C  0.73341330  0.77898887  0.86965123     0.04500
C1953       C  0.76738704  0.78751717  0.87046857    -0.07800
C1954       C  0.79158360  0.76259883  0.87044443    -0.08500
C1955       C  0.78288885  0.72892346  0.86978913    -0.03100
C1956       C  0.74895348  0.72042408  0.86923838     0.03800
N1957       N  0.73843911  0.68668295  0.86740161     0.66300
H1958       H  0.69901312  0.73803168  0.86833296     0.15200
H1959       H  0.81740522  0.76974939  0.87074446     0.14900
N1960       N  0.77793804  0.82130360  0.87020565     0.74000
O1961       O  0.72993375  0.67172330  0.89350112    -0.39500
O1962       O  0.73191018  0.67406345  0.83954547    -0.39400
O1963       O  0.78749078  0.83469329  0.89680018    -0.40100
O1964       O  0.78338020  0.83557034  0.84291353    -0.40200
C1965       C  0.84191750  0.87931929  0.51369594    -0.12500
C1966       C  0.86082419  0.85544460  0.53062480     0.04500
C1967       C  0.87999895  0.83292843  0.51187922    -0.07800
C1968       C  0.87869776  0.83366175  0.47725348    -0.08500
C1969       C  0.85859130  0.85646489  0.46031309    -0.03100
C1970       C  0.84045636  0.87991910  0.47898203     0.03800
N1971       N  0.81893398  0.90332202  0.46335177     0.66300
H1972       H  0.82694137  0.89679255  0.52741596     0.15200
H1973       H  0.89326720  0.81579483  0.46359271     0.14900
N1974       N  0.90074713  0.80881658  0.52746413     0.74000
O1975       O  0.78963719  0.89508510  0.45637154    -0.39500
O1976       O  0.82727142  0.93339566  0.46170594    -0.39400
O1977       O  0.89196085  0.77882779  0.52802459    -0.40100
O1978       O  0.92994041  0.81644526  0.53547382    -0.40200
C1979       C  0.98915518  0.83551738  0.62034422    -0.12500
C1980       C  0.97159151  0.85878820  0.63896469     0.04500
C1981       C  0.98913419  0.88356352  0.65628748    -0.07800
C1982       C  0.02369730  0.88344470  0.65625455    -0.08500
C1983       C  0.04143200  0.85859091  0.63968041    -0.03100
C1984       C  0.02365708  0.83468845  0.62091552     0.03800
N1985       N  0.03973810  0.80827639  0.60359080     0.66300
H1986       H  0.97603358  0.81629755  0.60694194     0.15200
H1987       H  0.03661750  0.90230458  0.67032376     0.14900
N1988       N  0.97227248  0.90917532  0.67387519     0.74000
O1989       O  0.04961569  0.78334734  0.61972352    -0.39500
O1990       O  0.03527037  0.80547055  0.57276932    -0.39400
O1991       O  0.96890226  0.90695009  0.70488965    -0.40100
O1992       O  0.96720928  0.93660168  0.65974167    -0.40200
C1993       C  0.84458638  0.98273661  0.61693382    -0.12500
C1994       C  0.86187286  0.96655000  0.64249708     0.04500
C1995       C  0.87867209  0.98571647  0.66643465    -0.07800
C1996       C  0.87689365  0.02021698  0.66499090    -0.08500
C1997       C  0.85790203  0.03649875  0.64069652    -0.03100
C1998       C  0.84251871  0.01736023  0.61576248     0.03800
N1999       N  0.82377192  0.03243954  0.58976805     0.66300
H2000       H  0.83189040  0.96839139  0.59810343     0.15200
H2001       H  0.88911155  0.03425071  0.68435430     0.14900
N2002       N  0.89499409  0.97080754  0.69420506     0.74000
O2003       O  0.83778877  0.03982146  0.56283917    -0.39500
O2004       O  0.79262473  0.03303184  0.59150953    -0.39400
O2005       O  0.92490645  0.97758373  0.69997832    -0.40100
O2006       O  0.87793099  0.95738476  0.71664581    -0.40200
C2007       C  0.75113379  0.78480177  0.62097665    -0.12500
C2008       C  0.78415884  0.77397578  0.62273498     0.04500
C2009       C  0.79044076  0.73962943  0.62554753    -0.07800
C2010       C  0.76404820  0.71715471  0.62585268    -0.08500
C2011       C  0.73105581  0.72803627  0.62403052    -0.03100
C2012       C  0.72476108  0.76238689  0.62193761     0.03800
N2013       N  0.69178489  0.77504464  0.62040479     0.66300
H2014       H  0.74554450  0.81103077  0.61938508     0.15200
H2015       H  0.76950511  0.69093182  0.62799304     0.14900
N2016       N  0.82337703  0.72700681  0.62801653     0.74000
O2017       O  0.67762470  0.78431177  0.64666831    -0.39500
O2018       O  0.67926652  0.78234765  0.59267891    -0.39400
O2019       O  0.83473658  0.71872612  0.65597520    -0.40100
O2020       O  0.83864370  0.71867609  0.60207623    -0.40200
C2021       C  0.89381536  0.74540911  0.71237078    -0.12500
C2022       C  0.88520490  0.77761429  0.72264759     0.04500
C2023       C  0.87671691  0.78274401  0.75620911    -0.07800
C2024       C  0.87720267  0.75626350  0.77839822    -0.08500
C2025       C  0.88567458  0.72422482  0.76813130    -0.03100
C2026       C  0.89422328  0.71875689  0.73469070     0.03800
N2027       N  0.90446228  0.68678572  0.72324065     0.66300
H2028       H  0.90045603  0.74076547  0.68669729     0.15200
H2029       H  0.87000818  0.76077120  0.80397591     0.14900
N2030       N  0.86653917  0.81438779  0.76819705     0.74000
O2031       O  0.89235139  0.67510717  0.69686491    -0.39500
O2032       O  0.92960622  0.67316558  0.73586526    -0.39400
O2033       O  0.83638288  0.81930669  0.77453295    -0.40100
O2034       O  0.88798077  0.83436334  0.77900541    -0.40200
C2035       C  0.74861565  0.87036223  0.71184724    -0.12500
C2036       C  0.78084535  0.88101231  0.71926228     0.04500
C2037       C  0.78779869  0.89279043  0.75161713    -0.07800
C2038       C  0.76310265  0.89227052  0.77579643    -0.08500
C2039       C  0.73117841  0.88114800  0.76830601    -0.03100
C2040       C  0.72387750  0.87049797  0.73588879     0.03800
N2041       N  0.69206994  0.85765264  0.72750481     0.66300
H2042       H  0.74254874  0.86107368  0.68732826     0.15200
H2043       H  0.76886701  0.90099218  0.80060982     0.14900
N2044       N  0.81934786  0.90618498  0.76028370     0.74000
O2045       O  0.67164959  0.87585286  0.71236353    -0.39500
O2046       O  0.68710303  0.82683570  0.72906536    -0.39400
O2047       O  0.82418000  0.93686384  0.75690003    -0.40100
O2048       O  0.83859259  0.88965495  0.77854885    -0.40200
loop_ 
_geom_bond_atom_site_label_1 
_geom_bond_atom_site_label_2 
_geom_bond_distance 
_geom_bond_site_symmetry_2 
_ccdc_geom_bond_type 
O1           C16   1.260       .  A
O1           Al9   1.891       .  S
C2           O12   1.260       .  A
C2            O3   1.265       .  A
C2         C2008   1.487       .  S
O3           Al5   1.917       .  S
O4            C6   1.260       .  A
O4           Al5   1.886       .  S
Al5          O13   1.898       .  S
Al5          O15   1.908       .  S
Al5          O14   1.778       .  S
C6           O19   1.258       .  A
C6         C2036   1.481       .  S
O7           C17   1.259       .  A
O7           Al9   1.891       .  S
O8           C21   1.262       .  A
O8          Al18   1.893       .  S
Al9          O22   1.903       .  S
Al9          O19   1.904       .  S
Al9          O14   1.784       .  S
O10          C17   1.262       .  A
O10         Al18   1.911       .  S
O11          C20   1.261       .  A
O11         Al18   1.910       .  S
O12         Al18   1.896       .  S
O13          C20   1.261       .  A
O14         Al18   1.783       .  S
O15          C16   1.263       .  A
C16        C1994   1.478       .  S
C17        C2022   1.485       .  S
C20        C1966   1.487       .  S
C21          O22   1.261       .  A
C21        C1980   1.474       .  S
O23          C38   1.258       .  A
O23         Al31   1.890       .  S
C24          O34   1.258       .  A
C24          O25   1.259       .  A
C24        C1938   1.479       .  S
O25         Al27   1.904       .  S
O26          C28   1.262       .  A
O26         Al27   1.899       .  S
Al27         O35   1.900       .  S
Al27         O37   1.902       .  S
Al27         O36   1.787       .  S
C28          O41   1.262       .  A
C28        C1952   1.490       .  S
O29          C39   1.257       .  A
O29         Al31   1.878       .  S
O30          C43   1.258       .  A
O30         Al40   1.890       .  S
Al31         O44   1.904       .  S
Al31         O41   1.916       .  S
Al31         O36   1.794       .  S
O32          C39   1.260       .  A
O32         Al40   1.905       .  S
O33          C42   1.262       .  A
O33         Al40   1.901       .  S
O34         Al40   1.894       .  S
O35          C42   1.261       .  A
O36         Al40   1.791       .  S
O37          C38   1.260       .  A
C38        C1924   1.475       .  S
C39        C2039   1.470       .  S
C42        C1896   1.482       .  S
C43          O44   1.260       .  A
C43        C1910   1.479       .  S
O45          C60   1.262       .  A
O45         Al53   1.900       .  S
C46          O56   1.258       .  A
C46          O47   1.262       .  A
C46        C1882   1.476       .  S
O47         Al49   1.913       .  S
O48          C50   1.258       .  A
O48         Al49   1.897       .  S
Al49         O57   1.898       .  S
Al49         O59   1.911       .  S
Al49         O58   1.789       .  S
C50          O63   1.259       .  A
C50        C2025   1.474       .  S
O51          C61   1.262       .  A
O51         Al53   1.900       .  S
O52          C65   1.260       .  A
O52         Al62   1.896       .  S
Al53         O66   1.903       .  S
Al53         O63   1.899       .  S
Al53         O58   1.785       .  S
O54          C61   1.263       .  A
O54         Al62   1.916       .  S
O55          C64   1.262       .  A
O55         Al62   1.905       .  S
O56         Al62   1.888       .  S
O57          C64   1.260       .  A
O58         Al62   1.789       .  S
O59          C60   1.264       .  A
C60        C1854   1.489       .  S
C61        C1955   1.488       .  S
C64        C1840   1.488       .  S
C65          O66   1.259       .  A
C65        C1868   1.486       .  S
O67          C82   1.258       .  A
O67         Al75   1.897       .  S
C68          O78   1.258       .  A
C68          O69   1.264       .  A
C68        C1941   1.488       .  S
O69         Al71   1.921       .  S
O70          C72   1.260       .  A
O70         Al71   1.894       .  S
Al71         O79   1.900       .  S
Al71         O81   1.916       .  S
Al71         O80   1.785       .  S
C72          O85   1.264       .  A
C72        C2011   1.485       .  S
O73          C83   1.259       .  A
O73         Al75   1.881       .  S
O74          C87   1.259       .  A
O74         Al84   1.884       .  S
Al75         O88   1.908       .  S
Al75         O85   1.916       .  S
Al75         O80   1.782       .  S
O76          C83   1.260       .  A
O76         Al84   1.917       .  S
O77          C86   1.263       .  A
O77         Al84   1.906       .  S
O78         Al84   1.888       .  S
O79          C86   1.262       .  A
O80         Al84   1.787       .  S
O81          C82   1.263       .  A
C82        C1826   1.489       .  S
C83        C1885   1.486       .  S
C86        C1798   1.482       .  S
C87          O88   1.262       .  A
C87        C1812   1.473       .  S
O89         C104   1.258       .  A
O89         Al97   1.883       .  S
C90         O100   1.262       .  A
C90          O91   1.262       .  A
C90        C1770   1.478       .  S
O91         Al93   1.914       .  S
O92          C94   1.258       .  A
O92         Al93   1.892       .  S
Al93        O101   1.902       .  S
Al93        O103   1.914       .  S
Al93        O102   1.789       .  S
C94         O107   1.260       .  A
C94        C1756   1.483       .  S
O95         C105   1.259       .  A
O95         Al97   1.883       .  S
O96         C109   1.263       .  A
O96        Al106   1.907       .  S
Al97        O110   1.904       .  S
Al97        O107   1.904       .  S
Al97        O102   1.785       .  S
O98         C105   1.259       .  A
O98        Al106   1.908       .  S
O99         C108   1.260       .  A
O99        Al106   1.892       .  S
O100       Al106   1.903       .  S
O101        C108   1.260       .  A
O102       Al106   1.789       .  S
O103        C104   1.263       .  A
C104       C1731   1.478       .  S
C105       C1784   1.481       .  S
C108       C1997   1.485       .  S
C109        O110   1.260       .  A
C109       C1742   1.485       .  S
O111        C126   1.258       .  A
O111       Al119   1.892       .  S
C112        O122   1.258       .  A
C112        O113   1.260       .  A
C112       C1703   1.468       .  S
O113       Al115   1.903       .  S
O114        C116   1.259       .  A
O114       Al115   1.887       .  S
Al115       O123   1.899       .  S
Al115       O125   1.896       .  S
Al115       O124   1.787       .  S
C116        O129   1.262       .  A
C116       C1714   1.471       .  S
O117        C127   1.256       .  A
O117       Al119   1.878       .  S
O118        C131   1.259       .  A
O118       Al128   1.881       .  S
Al119       O132   1.903       .  S
Al119       O129   1.908       .  S
Al119       O124   1.790       .  S
O120        C127   1.260       .  A
O120       Al128   1.911       .  S
O121        C130   1.262       .  A
O121       Al128   1.905       .  S
O122       Al128   1.892       .  S
O123        C130   1.261       .  A
O124       Al128   1.788       .  S
O125        C126   1.260       .  A
C126       C1686   1.478       .  S
C127       C1787   1.478       .  S
C130       C1843   1.482       .  S
C131        O132   1.261       .  A
C131       C1672   1.474       .  S
O133        C148   1.258       .  A
O133       Al141   1.885       .  S
C134        O144   1.262       .  A
C134        O135   1.263       .  A
C134       C1773   1.492       .  S
O135       Al137   1.922       .  S
O136        C138   1.259       .  A
O136       Al137   1.884       .  S
Al137       O145   1.899       .  S
Al137       O147   1.905       .  S
Al137       O146   1.782       .  S
C138        O151   1.261       .  A
C138       C1717   1.484       .  S
O139        C149   1.258       .  A
O139       Al141   1.882       .  S
O140        C153   1.264       .  A
O140       Al150   1.903       .  S
Al141       O154   1.912       .  S
Al141       O151   1.917       .  S
Al141       O146   1.784       .  S
O142        C149   1.260       .  A
O142       Al150   1.902       .  S
O143        C152   1.262       .  A
O143       Al150   1.900       .  S
O144       Al150   1.900       .  S
O145        C152   1.260       .  A
O146       Al150   1.778       .  S
O147        C148   1.264       .  A
C148       C1644   1.476       .  S
C149       C1658   1.476       .  S
C152       C1913   1.485       .  S
C153        O154   1.262       .  A
C153       C1630   1.486       .  S
O155        C170   1.259       .  A
O155       Al163   1.894       .  S
C156        O166   1.262       .  A
C156        O157   1.262       .  A
C156       C1700   1.486       .  S
O157       Al159   1.909       .  S
O158        C160   1.259       .  A
O158       Al159   1.889       .  S
Al159       O167   1.896       .  S
Al159       O169   1.902       .  S
Al159       O168   1.781       .  S
C160        O173   1.264       .  A
C160       C1759   1.480       .  S
O161        C171   1.258       .  A
O161       Al163   1.891       .  S
O162        C175   1.263       .  A
O162       Al172   1.899       .  S
Al163       O176   1.908       .  S
Al163       O173   1.910       .  S
Al163       O168   1.781       .  S
O164        C171   1.258       .  A
O164       Al172   1.895       .  S
O165        C174   1.260       .  A
O165       Al172   1.901       .  S
O166       Al172   1.904       .  S
O167        C174   1.262       .  A
O168       Al172   1.779       .  S
O169        C170   1.261       .  A
C170       C1616   1.485       .  S
C171       C1661   1.472       .  S
C174       C1815   1.482       .  S
C175        O176   1.264       .  A
C175       C1602   1.482       .  S
O177        C192   1.260       .  A
O177       Al185   1.900       .  S
C178        O188   1.263       .  A
C178        O179   1.258       .  A
C178       C1574   1.484       .  S
O179       Al181   1.902       .  S
O180        C182   1.262       .  A
O180       Al181   1.905       .  S
Al181       O189   1.905       .  S
Al181       O191   1.899       .  S
Al181       O190   1.783       .  S
C182        O195   1.262       .  A
C182       C1588   1.492       .  S
O183        C193   1.260       .  A
O183       Al185   1.894       .  S
O184        C197   1.261       .  A
O184       Al194   1.901       .  S
Al185       O198   1.902       .  S
Al185       O195   1.910       .  S
Al185       O190   1.782       .  S
O186        C193   1.258       .  A
O186       Al194   1.901       .  S
O187        C196   1.256       .  A
O187       Al194   1.886       .  S
O188       Al194   1.897       .  S
O189        C196   1.264       .  A
O190       Al194   1.780       .  S
O191        C192   1.262       .  A
C192       C1546   1.486       .  S
C193       C1560   1.484       .  S
C196       C1983   1.482       .  S
C197        O198   1.262       .  A
C197       C1532   1.486       .  S
O199        C214   1.259       .  A
O199       Al207   1.896       .  S
C200        O210   1.260       .  A
C200        O201   1.261       .  A
C200       C1504   1.485       .  S
O201       Al203   1.913       .  S
O202        C204   1.262       .  A
O202       Al203   1.908       .  S
Al203       O211   1.905       .  S
Al203       O213   1.901       .  S
Al203       O212   1.786       .  S
C204        O217   1.261       .  A
C204       C1591   1.481       .  S
O205        C215   1.260       .  A
O205       Al207   1.889       .  S
O206        C219   1.258       .  A
O206       Al216   1.893       .  S
Al207       O220   1.899       .  S
Al207       O217   1.906       .  S
Al207       O212   1.786       .  S
O208        C215   1.263       .  A
O208       Al216   1.915       .  S
O209        C218   1.262       .  A
O209       Al216   1.902       .  S
O210       Al216   1.887       .  S
O211        C218   1.262       .  A
O212       Al216   1.784       .  S
O213        C214   1.263       .  A
C214       C1476   1.483       .  S
C215       C1518   1.483       .  S
C218       C1899   1.487       .  S
C219        O220   1.260       .  A
C219       C1490   1.481       .  S
O221        C236   1.261       .  A
O221       Al229   1.902       .  S
C222        O232   1.259       .  A
C222        O223   1.258       .  A
C222       C1577   1.474       .  S
O223       Al225   1.897       .  S
O224        C226   1.258       .  A
O224       Al225   1.886       .  S
Al225       O233   1.892       .  S
Al225       O235   1.895       .  S
Al225       O234   1.787       .  S
C226        O239   1.260       .  A
C226       C1462   1.482       .  S
O227        C237   1.261       .  A
O227       Al229   1.885       .  S
O228        C241   1.261       .  A
O228       Al238   1.903       .  S
Al229       O242   1.900       .  S
Al229       O239   1.914       .  S
Al229       O234   1.787       .  S
O230        C237   1.262       .  A
O230       Al238   1.915       .  S
O231        C240   1.263       .  A
O231       Al238   1.909       .  S
O232       Al238   1.898       .  S
O233        C240   1.259       .  A
O234       Al238   1.790       .  S
O235        C236   1.260       .  A
C236       C1434   1.480       .  S
C237       C1521   1.484       .  S
C240       C1857   1.481       .  S
C241        O242   1.259       .  A
C241       C1448   1.485       .  S
O243        C258   1.260       .  A
O243       Al251   1.900       .  S
C244        O254   1.258       .  A
C244        O245   1.260       .  A
C244       C1507   1.481       .  S
O245       Al247   1.912       .  S
O246        C248   1.262       .  A
O246       Al247   1.893       .  S
Al247       O255   1.901       .  S
Al247       O257   1.904       .  S
Al247       O256   1.786       .  S
C248        O261   1.260       .  A
C248       C1465   1.482       .  S
O249        C259   1.259       .  A
O249       Al251   1.887       .  S
O250        C263   1.258       .  A
O250       Al260   1.892       .  S
Al251       O264   1.897       .  S
Al251       O261   1.907       .  S
Al251       O256   1.787       .  S
O252        C259   1.260       .  A
O252       Al260   1.905       .  S
O253        C262   1.262       .  A
O253       Al260   1.897       .  S
O254       Al260   1.886       .  S
O255        C262   1.262       .  A
O256       Al260   1.787       .  S
O257        C258   1.261       .  A
C258       C1406   1.482       .  S
C259       C1563   1.474       .  S
C262       C1801   1.483       .  S
C263        O264   1.261       .  A
C263       C1420   1.479       .  S
O265        C280   1.265       .  A
O265       Al273   1.911       .  S
C266        O276   1.260       .  A
C266        O267   1.258       .  A
C266       C1378   1.481       .  S
O267       Al269   1.896       .  S
O268        C270   1.260       .  A
O268       Al269   1.890       .  S
Al269       O277   1.890       .  S
Al269       O279   1.900       .  S
Al269       O278   1.785       .  S
C270        O283   1.258       .  A
C270       C1364   1.483       .  S
O271        C281   1.263       .  A
O271       Al273   1.908       .  S
O272        C285   1.261       .  A
O272       Al282   1.908       .  S
Al273       O286   1.897       .  S
Al273       O283   1.905       .  S
Al273       O278   1.787       .  S
O274        C281   1.264       .  A
O274       Al282   1.916       .  S
O275        C284   1.263       .  A
O275       Al282   1.909       .  S
O276       Al282   1.903       .  S
O277        C284   1.260       .  A
O278       Al282   1.789       .  S
O279        C280   1.259       .  A
C280       C1745   1.488       .  S
C281       C1392   1.495       .  S
C284       C1549   1.478       .  S
C285        O286   1.260       .  A
C285       C1353   1.489       .  S
O287        C302   1.261       .  A
O287       Al295   1.906       .  S
C288        O298   1.259       .  A
C288        O289   1.260       .  A
C288       C1336   1.479       .  S
O289       Al291   1.910       .  S
O290        C292   1.259       .  A
O290       Al291   1.890       .  S
Al291       O299   1.895       .  S
Al291       O301   1.892       .  S
Al291       O300   1.787       .  S
C292        O305   1.264       .  A
C292       C1322   1.480       .  S
O293        C303   1.260       .  A
O293       Al295   1.906       .  S
O294        C307   1.259       .  A
O294       Al304   1.890       .  S
Al295       O308   1.912       .  S
Al295       O305   1.915       .  S
Al295       O300   1.787       .  S
O296        C303   1.262       .  A
O296       Al304   1.914       .  S
O297        C306   1.263       .  A
O297       Al304   1.915       .  S
O298       Al304   1.879       .  S
O299        C306   1.260       .  A
O300       Al304   1.783       .  S
O301        C302   1.260       .  A
C302       C1605   1.485       .  S
C303       C1395   1.491       .  S
C306       C1409   1.486       .  S
C307        O308   1.264       .  A
C307       C1311   1.481       .  S
O309        C324   1.260       .  A
O309       Al317   1.893       .  S
C310        O320   1.261       .  A
C310        O311   1.262       .  A
C310       C1381   1.487       .  S
O311       Al313   1.912       .  S
O312        C314   1.259       .  A
O312       Al313   1.891       .  S
Al313       O321   1.887       .  S
Al313       O323   1.913       .  S
Al313       O322   1.783       .  S
C314        O327   1.263       .  A
C314       C1325   1.487       .  S
O315        C325   1.260       .  A
O315       Al317   1.886       .  S
O316        C329   1.261       .  A
O316       Al326   1.900       .  S
Al317       O330   1.903       .  S
Al317       O327   1.912       .  S
Al317       O322   1.780       .  S
O318        C325   1.262       .  A
O318       Al326   1.922       .  S
O319        C328   1.263       .  A
O319       Al326   1.914       .  S
O320       Al326   1.898       .  S
O321        C328   1.259       .  A
O322       Al326   1.787       .  S
O323        C324   1.261       .  A
C324       C1633   1.486       .  S
C325       C1297   1.488       .  S
C328       C1479   1.478       .  S
C329        O330   1.263       .  A
C329       C1280   1.487       .  S
O331        C346   1.259       .  A
O331       Al339   1.887       .  S
C332        O342   1.257       .  A
C332        O333   1.259       .  A
C332       C1339   1.465       .  S
O333       Al335   1.899       .  S
O334        C336   1.258       .  A
O334       Al335   1.891       .  S
Al335       O343   1.906       .  S
Al335       O345   1.890       .  S
Al335       O344   1.794       .  S
C336        O349   1.258       .  A
C336       C1367   1.471       .  S
O337        C347   1.257       .  A
O337       Al339   1.892       .  S
O338        C351   1.260       .  A
O338       Al348   1.891       .  S
Al339       O352   1.898       .  S
Al339       O349   1.895       .  S
Al339       O344   1.792       .  S
O340        C347   1.259       .  A
O340       Al348   1.904       .  S
O341        C350   1.259       .  A
O341       Al348   1.889       .  S
O342       Al348   1.882       .  S
O343        C350   1.260       .  A
O344       Al348   1.790       .  S
O345        C346   1.257       .  A
C346       C1675   1.480       .  S
C347       C1294   1.475       .  S
C350       C1437   1.485       .  S
C351        O352   1.259       .  A
C351       C1266   1.475       .  S
O353        C368   1.268       .  A
O353       Al361   1.929       .  S
C354        O364   1.263       .  A
C354        O355   1.259       .  A
C354       C1227   1.483       .  S
O355       Al357   1.884       .  S
O356        C358   1.265       .  A
O356       Al357   1.925       .  S
Al357       O365   1.922       .  S
Al357       O367   1.890       .  S
Al357       O366   1.778       .  S
C358        O371   1.256       .  A
C358       C1255   1.485       .  S
O359        C369   1.267       .  A
O359       Al361   1.937       .  S
O360        C373   1.264       .  A
O360       Al370   1.911       .  S
Al361       O374   1.885       .  S
Al361       O371   1.880       .  S
Al361       O366   1.781       .  S
O362        C369   1.257       .  A
O362       Al370   1.879       .  S
O363        C372   1.259       .  A
O363       Al370   1.890       .  S
O364       Al370   1.919       .  S
O365        C372   1.266       .  A
O366       Al370   1.780       .  S
O367        C368   1.259       .  A
C368       C1196   1.491       .  S
C369       C1241   1.489       .  S
C372       C1969   1.486       .  S
C373        O374   1.257       .  A
C373       C1210   1.483       .  S
O375        C390   1.260       .  A
O375       Al383   1.892       .  S
C376        O386   1.260       .  A
C376        O377   1.261       .  A
C376       C1182   1.481       .  S
O377       Al379   1.905       .  S
O378        C380   1.259       .  A
O378       Al379   1.885       .  S
Al379       O387   1.886       .  S
Al379       O389   1.898       .  S
Al379       O388   1.787       .  S
C380        O393   1.262       .  A
C380       C1252   1.486       .  S
O381        C391   1.261       .  A
O381       Al383   1.902       .  S
O382        C395   1.261       .  A
O382       Al392   1.892       .  S
Al383       O396   1.905       .  S
Al383       O393   1.916       .  S
Al383       O388   1.789       .  S
O384        C391   1.261       .  A
O384       Al392   1.906       .  S
O385        C394   1.261       .  A
O385       Al392   1.911       .  S
O386       Al392   1.896       .  S
O387        C394   1.258       .  A
O388       Al392   1.786       .  S
O389        C390   1.259       .  A
C390       C1154   1.475       .  S
C391       C1168   1.479       .  S
C394       C1871   1.478       .  S
C395        O396   1.261       .  A
C395       C1143   1.477       .  S
O397        C412   1.261       .  A
O397       Al405   1.893       .  S
C398        O408   1.260       .  A
C398        O399   1.263       .  A
C398       C1185   1.485       .  S
O399       Al401   1.907       .  S
O400        C402   1.261       .  A
O400       Al401   1.902       .  S
Al401       O409   1.904       .  S
Al401       O411   1.905       .  S
Al401       O410   1.784       .  S
C402        O415   1.261       .  A
C402       C1126   1.480       .  S
O403        C413   1.261       .  A
O403       Al405   1.892       .  S
O404        C417   1.262       .  A
O404       Al414   1.896       .  S
Al405       O418   1.903       .  S
Al405       O415   1.902       .  S
Al405       O410   1.780       .  S
O406        C413   1.259       .  A
O406       Al414   1.910       .  S
O407        C416   1.262       .  A
O407       Al414   1.902       .  S
O408       Al414   1.899       .  S
O409        C416   1.262       .  A
O410       Al414   1.784       .  S
O411        C412   1.260       .  A
C412       C1098   1.485       .  S
C413       C1238   1.485       .  S
C416       C1927   1.487       .  S
C417        O418   1.260       .  A
C417       C1112   1.479       .  S
O419        C434   1.265       .  A
O419       Al427   1.902       .  S
C420        O430   1.258       .  A
C420        O421   1.262       .  A
C420       C1224   1.482       .  S
O421       Al423   1.907       .  S
O422        C424   1.259       .  A
O422       Al423   1.897       .  S
Al423       O431   1.898       .  S
Al423       O433   1.906       .  S
Al423       O432   1.781       .  S
C424        O437   1.261       .  A
C424       C1129   1.485       .  S
O425        C435   1.261       .  A
O425       Al427   1.898       .  S
O426        C439   1.262       .  A
O426       Al436   1.900       .  S
Al427       O440   1.913       .  S
Al427       O437   1.909       .  S
Al427       O432   1.783       .  S
O428        C435   1.264       .  A
O428       Al436   1.917       .  S
O429        C438   1.264       .  A
O429       Al436   1.917       .  S
O430       Al436   1.889       .  S
O431        C438   1.260       .  A
O432       Al436   1.782       .  S
O433        C434   1.262       .  A
C434       C1073   1.488       .  S
C435       C1171   1.490       .  S
C438       C1829   1.490       .  S
C439        O440   1.262       .  A
C439       C1084   1.489       .  S
O441        C456   1.264       .  A
O441       Al449   1.905       .  S
C442        O452   1.259       .  A
C442        O443   1.259       .  A
C442       C1028   1.470       .  S
O443       Al445   1.900       .  S
O444        C446   1.257       .  A
O444       Al445   1.883       .  S
Al445       O453   1.891       .  S
Al445       O455   1.895       .  S
Al445       O454   1.786       .  S
C446        O459   1.261       .  A
C446       C1042   1.476       .  S
O447        C457   1.262       .  A
O447       Al449   1.901       .  S
O448        C461   1.262       .  A
O448       Al458   1.902       .  S
Al449       O462   1.906       .  S
Al449       O459   1.906       .  S
Al449       O454   1.787       .  S
O450        C457   1.261       .  A
O450       Al458   1.908       .  S
O451        C460   1.262       .  A
O451       Al458   1.896       .  S
O452       Al458   1.897       .  S
O453        C460   1.258       .  A
O454       Al458   1.785       .  S
O455        C456   1.258       .  A
C456       C1115   1.486       .  S
C457       C1059   1.482       .  S
C460       C1647   1.479       .  S
C461        O462   1.260       .  A
C461       C1014   1.488       .  S
O463        C478   1.259       .  A
O463       Al471   1.889       .  S
C464        O474   1.260       .  A
C464        O465   1.261       .  A
C464        C986   1.475       .  S
O465       Al467   1.903       .  S
O466        C468   1.258       .  A
O466       Al467   1.896       .  S
Al467       O475   1.890       .  S
Al467       O477   1.914       .  S
Al467       O476   1.791       .  S
C468        O481   1.261       .  A
C468       C1000   1.482       .  S
O469        C479   1.259       .  A
O469       Al471   1.889       .  S
O470        C483   1.262       .  A
O470       Al480   1.900       .  S
Al471       O484   1.904       .  S
Al471       O481   1.905       .  S
Al471       O476   1.786       .  S
O472        C479   1.261       .  A
O472       Al480   1.920       .  S
O473        C482   1.261       .  A
O473       Al480   1.906       .  S
O474       Al480   1.896       .  S
O475        C482   1.259       .  A
O476       Al480   1.792       .  S
O477        C478   1.262       .  A
C478       C1087   1.481       .  S
C479       C1056   1.490       .  S
C482       C1619   1.476       .  S
C483        O484   1.261       .  A
C483        C972   1.481       .  S
O485        C500   1.262       .  A
O485       Al493   1.899       .  S
C486        O496   1.260       .  A
C486        O487   1.261       .  A
C486        C989   1.484       .  S
O487       Al489   1.904       .  S
O488        C490   1.259       .  A
O488       Al489   1.887       .  S
Al489       O497   1.894       .  S
Al489       O499   1.896       .  S
Al489       O498   1.784       .  S
C490        O503   1.262       .  A
C490       C1045   1.474       .  S
O491        C501   1.261       .  A
O491       Al493   1.900       .  S
O492        C505   1.263       .  A
O492       Al502   1.899       .  S
Al493       O506   1.898       .  S
Al493       O503   1.901       .  S
Al493       O498   1.781       .  S
O494        C501   1.262       .  A
O494       Al502   1.913       .  S
O495        C504   1.265       .  A
O495       Al502   1.913       .  S
O496       Al502   1.897       .  S
O497        C504   1.260       .  A
O498       Al502   1.779       .  S
O499        C500   1.259       .  A
C500       C1213   1.483       .  S
C501        C958   1.485       .  S
C504       C1728   1.486       .  S
C505        O506   1.260       .  A
C505        C944   1.483       .  S
O507        C522   1.261       .  A
O507       Al515   1.899       .  S
C508        O518   1.262       .  A
C508        O509   1.261       .  A
C508       C1031   1.486       .  S
O509       Al511   1.905       .  S
O510        C512   1.259       .  A
O510       Al511   1.888       .  S
Al511       O519   1.898       .  S
Al511       O521   1.899       .  S
Al511       O520   1.786       .  S
C512        O525   1.265       .  A
C512       C1003   1.487       .  S
O513        C523   1.258       .  A
O513       Al515   1.897       .  S
O514        C527   1.264       .  A
O514       Al524   1.910       .  S
Al515       O528   1.914       .  S
Al515       O525   1.917       .  S
Al515       O520   1.781       .  S
O516        C523   1.260       .  A
O516       Al524   1.907       .  S
O517        C526   1.263       .  A
O517       Al524   1.907       .  S
O518       Al524   1.904       .  S
O519        C526   1.261       .  A
O520       Al524   1.782       .  S
O521        C522   1.258       .  A
C522       C1140   1.487       .  S
C523        C961   1.486       .  S
C526       C1689   1.483       .  S
C527        O528   1.265       .  A
C527        C930   1.494       .  S
O529        C544   1.262       .  A
O529       Al537   1.905       .  S
C530        O540   1.258       .  A
C530        O531   1.256       .  A
C530        C916   1.475       .  S
O531       Al533   1.896       .  S
O532        C534   1.261       .  A
O532       Al533   1.892       .  S
Al533       O541   1.888       .  S
Al533       O543   1.890       .  S
Al533       O542   1.792       .  S
C534        O547   1.262       .  A
C534        C902   1.487       .  S
O535        C545   1.261       .  A
O535       Al537   1.901       .  S
O536        C549   1.259       .  A
O536       Al546   1.893       .  S
Al537       O550   1.904       .  S
Al537       O547   1.916       .  S
Al537       O542   1.791       .  S
O538        C545   1.259       .  A
O538       Al546   1.898       .  S
O539        C548   1.261       .  A
O539       Al546   1.903       .  S
O540       Al546   1.893       .  S
O541        C548   1.260       .  A
O542       Al546   1.793       .  S
O543        C544   1.256       .  A
C544        C874   1.482       .  S
C545        C888   1.476       .  S
C548        C947   1.477       .  S
C549        O550   1.260       .  A
C549       C1350   1.479       .  S
O551        C566   1.262       .  A
O551       Al559   1.904       .  S
C552        O562   1.261       .  A
C552        O553   1.258       .  A
C552        C919   1.483       .  S
O553       Al555   1.899       .  S
O554        C556   1.261       .  A
O554       Al555   1.911       .  S
Al555       O563   1.907       .  S
Al555       O565   1.893       .  S
Al555       O564   1.788       .  S
C556        O569   1.259       .  A
C556        C846   1.487       .  S
O557        C567   1.261       .  A
O557       Al559   1.897       .  S
O558        C571   1.260       .  A
O558       Al568   1.899       .  S
Al559       O572   1.896       .  S
Al559       O569   1.902       .  S
Al559       O564   1.788       .  S
O560        C567   1.264       .  A
O560       Al568   1.927       .  S
O561        C570   1.262       .  A
O561       Al568   1.910       .  S
O562       Al568   1.889       .  S
O563        C570   1.262       .  A
O564       Al568   1.788       .  S
O565        C566   1.262       .  A
C566        C835   1.481       .  S
C567        C860   1.492       .  S
C570        C933   1.491       .  S
C571        O572   1.258       .  A
C571       C1269   1.486       .  S
O573        C588   1.262       .  A
O573       Al581   1.906       .  S
C574        O584   1.257       .  A
C574        O575   1.256       .  A
C574        C821   1.468       .  S
O575       Al577   1.893       .  S
O576        C578   1.259       .  A
O576       Al577   1.884       .  S
Al577       O585   1.898       .  S
Al577       O587   1.887       .  S
Al577       O586   1.791       .  S
C578        O591   1.262       .  A
C578        C905   1.484       .  S
O579        C589   1.259       .  A
O579       Al581   1.900       .  S
O580        C593   1.259       .  A
O580       Al590   1.894       .  S
Al581       O594   1.902       .  S
Al581       O591   1.918       .  S
Al581       O586   1.795       .  S
O582        C589   1.261       .  A
O582       Al590   1.905       .  S
O583        C592   1.262       .  A
O583       Al590   1.912       .  S
O584       Al590   1.892       .  S
O585        C592   1.261       .  A
O586       Al590   1.793       .  S
O587        C588   1.256       .  A
C588        C804   1.486       .  S
C589        C863   1.476       .  S
C592       C1017   1.488       .  S
C593        O594   1.261       .  A
C593       C1283   1.481       .  S
O595        C610   1.262       .  A
O595       Al603   1.894       .  S
C596        O606   1.261       .  A
C596        O597   1.258       .  A
C596        C818   1.480       .  S
O597       Al599   1.899       .  S
O598        C600   1.261       .  A
O598       Al599   1.907       .  S
Al599       O607   1.911       .  S
Al599       O609   1.902       .  S
Al599       O608   1.789       .  S
C600        O613   1.261       .  A
C600        C849   1.491       .  S
O601        C611   1.260       .  A
O601       Al603   1.900       .  S
O602        C615   1.261       .  A
O602       Al612   1.901       .  S
Al603       O616   1.909       .  S
Al603       O613   1.906       .  S
Al603       O608   1.782       .  S
O604        C611   1.262       .  A
O604       Al612   1.914       .  S
O605        C614   1.259       .  A
O605       Al612   1.901       .  S
O606       Al612   1.890       .  S
O607        C614   1.264       .  A
O608       Al612   1.781       .  S
O609        C610   1.260       .  A
C610        C790   1.481       .  S
C611        C891   1.491       .  S
C614        C975   1.492       .  S
C615        O616   1.263       .  A
C615       C1308   1.489       .  S
O617        C632   1.262       .  A
O617       Al625   1.901       .  S
C618        O628   1.261       .  A
C618        O619   1.258       .  A
C618        C762   1.484       .  S
O619       Al621   1.904       .  S
O620        C622   1.262       .  A
O620       Al621   1.907       .  S
Al621       O629   1.904       .  S
Al621       O631   1.903       .  S
Al621       O630   1.786       .  S
C622        O635   1.262       .  A
C622        C748   1.488       .  S
O623        C633   1.261       .  A
O623       Al625   1.895       .  S
O624        C637   1.260       .  A
O624       Al634   1.897       .  S
Al625       O638   1.905       .  S
Al625       O635   1.906       .  S
Al625       O630   1.781       .  S
O626        C633   1.259       .  A
O626       Al634   1.903       .  S
O627        C636   1.258       .  A
O627       Al634   1.892       .  S
O628       Al634   1.894       .  S
O629        C636   1.264       .  A
O630       Al634   1.782       .  S
O631        C632   1.260       .  A
C632       C1451   1.485       .  S
C633        C779   1.485       .  S
C636       C1157   1.484       .  S
C637        O638   1.262       .  A
C637        C832   1.484       .  S
O639        C654   1.261       .  A
O639       Al647   1.901       .  S
C640        O650   1.256       .  A
C640        O641   1.258       .  A
C640        C720   1.472       .  S
O641       Al643   1.900       .  S
O642        C644   1.260       .  A
O642       Al643   1.897       .  S
Al643       O651   1.900       .  S
Al643       O653   1.902       .  S
Al643       O652   1.787       .  S
C644        O657   1.258       .  A
C644        C734   1.485       .  S
O645        C655   1.260       .  A
O645       Al647   1.889       .  S
O646        C659   1.259       .  A
O646       Al656   1.894       .  S
Al647       O660   1.895       .  S
Al647       O657   1.906       .  S
Al647       O652   1.790       .  S
O648        C655   1.261       .  A
O648       Al656   1.905       .  S
O649        C658   1.260       .  A
O649       Al656   1.897       .  S
O650       Al656   1.887       .  S
O651        C658   1.262       .  A
O652       Al656   1.793       .  S
O653        C654   1.262       .  A
C654       C1423   1.484       .  S
C655        C776   1.474       .  S
C658       C1070   1.480       .  S
C659        O660   1.256       .  A
C659        C793   1.483       .  S
O661        C676   1.260       .  A
O661       Al669   1.899       .  S
C662        O672   1.260       .  A
C662        O663   1.259       .  A
C662        C765   1.473       .  S
O663       Al665   1.900       .  S
O664        C666   1.261       .  A
O664       Al665   1.899       .  S
Al665       O673   1.911       .  S
Al665       O675   1.896       .  S
Al665       O674   1.788       .  S
C666        O679   1.257       .  A
C666        C737   1.486       .  S
O667        C677   1.259       .  A
O667       Al669   1.891       .  S
O668        C681   1.261       .  A
O668       Al678   1.901       .  S
Al669       O682   1.898       .  S
Al669       O679   1.901       .  S
Al669       O674   1.793       .  S
O670        C677   1.260       .  A
O670       Al678   1.908       .  S
O671        C680   1.259       .  A
O671       Al678   1.899       .  S
O672       Al678   1.895       .  S
O673        C680   1.263       .  A
O674       Al678   1.792       .  S
O675        C676   1.261       .  A
C676       C1535   1.479       .  S
C677        C709   1.480       .  S
C680       C1199   1.492       .  S
C681        O682   1.259       .  A
C681        C877   1.483       .  S
O683        C698   1.259       .  A
O683       Al691   1.894       .  S
C684        O694   1.258       .  A
C684        O685   1.259       .  A
C684        C723   1.483       .  S
O685       Al687   1.911       .  S
O686        C688   1.260       .  A
O686       Al687   1.896       .  S
Al687       O695   1.893       .  S
Al687       O697   1.904       .  S
Al687       O696   1.789       .  S
C688        O701   1.263       .  A
C688        C751   1.483       .  S
O689        C699   1.260       .  A
O689       Al691   1.889       .  S
O690        C703   1.258       .  A
O690       Al700   1.888       .  S
Al691       O704   1.910       .  S
Al691       O701   1.913       .  S
Al691       O696   1.785       .  S
O692        C699   1.261       .  A
O692       Al700   1.912       .  S
O693        C702   1.262       .  A
O693       Al700   1.905       .  S
O694       Al700   1.884       .  S
O695        C702   1.261       .  A
O696       Al700   1.786       .  S
O697        C698   1.261       .  A
C698       C1493   1.479       .  S
C699        C706   1.487       .  S
C702       C1101   1.475       .  S
C703        O704   1.261       .  A
C703        C807   1.475       .  S
C705        C706   1.406       .  A
C705        C710   1.399       .  A
C705        H712   1.086       .  S
C706        C707   1.417       .  A
C707        C708   1.399       .  A
C707        N714   1.429       .  S
C708        C709   1.402       .  A
C708        H713   1.086       .  S
C709        C710   1.413       .  A
C710        N711   1.429       .  S
N711        O715   1.262       .  A
N711        O716   1.262       .  A
N714        O718   1.261       .  A
N714        O717   1.262       .  A
C719        C720   1.402       .  A
C719        C724   1.403       .  A
C719        H726   1.078       .  S
C720        C721   1.407       .  A
C721        C722   1.394       .  A
C721        N728   1.428       .  S
C722        C723   1.404       .  A
C722        H727   1.066       .  S
C723        C724   1.416       .  A
C724        N725   1.430       .  S
N725        O729   1.262       .  A
N725        O730   1.261       .  A
N728        O732   1.261       .  A
N728        O731   1.262       .  A
C733        C734   1.402       .  A
C733        C738   1.399       .  A
C733        H740   1.090       .  S
C734        C735   1.415       .  A
C735        C736   1.399       .  A
C735        N742   1.429       .  S
C736        C737   1.403       .  A
C736        H741   1.090       .  S
C737        C738   1.416       .  A
C738        N739   1.429       .  S
N739        O743   1.262       .  A
N739        O744   1.262       .  A
N742        O746   1.262       .  A
N742        O745   1.262       .  A
C747        C748   1.408       .  A
C747        C752   1.400       .  A
C747        H754   1.086       .  S
C748        C749   1.412       .  A
C749        C750   1.400       .  A
C749        N756   1.427       .  S
C750        C751   1.405       .  A
C750        H755   1.086       .  S
C751        C752   1.410       .  A
C752        N753   1.429       .  S
N753        O757   1.262       .  A
N753        O758   1.262       .  A
N756        O760   1.262       .  A
N756        O759   1.262       .  A
C761        C762   1.403       .  A
C761        C766   1.395       .  A
C761        H768   1.087       .  S
C762        C763   1.418       .  A
C763        C764   1.401       .  A
C763        N770   1.429       .  S
C764        C765   1.400       .  A
C764        H769   1.087       .  S
C765        C766   1.410       .  A
C766        N767   1.427       .  S
N767        O771   1.262       .  A
N767        O772   1.261       .  A
N770        O774   1.261       .  A
N770        O773   1.262       .  A
C775        C776   1.400       .  A
C775        C780   1.398       .  A
C775        H782   1.085       .  S
C776        C777   1.411       .  A
C777        C778   1.398       .  A
C777        N784   1.429       .  S
C778        C779   1.405       .  A
C778        H783   1.085       .  S
C779        C780   1.418       .  A
C780        N781   1.429       .  S
N781        O785   1.262       .  A
N781        O786   1.262       .  A
N784        O788   1.262       .  A
N784        O787   1.262       .  A
C789        C790   1.400       .  A
C789        C794   1.397       .  A
C789        H796   1.085       .  S
C790        C791   1.414       .  A
C791        C792   1.400       .  A
C791        N798   1.430       .  S
C792        C793   1.405       .  A
C792        H797   1.085       .  S
C793        C794   1.417       .  A
C794        N795   1.430       .  S
N795        O799   1.262       .  A
N795        O800   1.261       .  A
N798        O802   1.262       .  A
N798        O801   1.262       .  A
C803        C804   1.405       .  A
C803        C808   1.400   1_545  A
C803        H810   1.083       .  S
C804        C805   1.420       .  A
C805        C806   1.397   1_545  A
C805        N812   1.430       .  S
C806        C807   1.399       .  A
C806        H811   1.084       .  S
C807        C808   1.409       .  A
C808        N809   1.427       .  S
N809        O813   1.261       .  A
N809        O814   1.262       .  A
N812        O816   1.262       .  A
N812        O815   1.262       .  A
C817        C818   1.403       .  A
C817        C822   1.394       .  A
C817        H824   1.086       .  S
C818        C819   1.419       .  A
C819        C820   1.400       .  A
C819        N826   1.430       .  S
C820        C821   1.398       .  A
C820        H825   1.086       .  S
C821        C822   1.408       .  A
C822        N823   1.427       .  S
N823        O827   1.262       .  A
N823        O828   1.262       .  A
N826        O830   1.262       .  A
N826        O829   1.262       .  A
C831        C832   1.407       .  A
C831        C836   1.400       .  A
C831        H838   1.085       .  S
C832        C833   1.413       .  A
C833        C834   1.396       .  A
C833        N840   1.429       .  S
C834        C835   1.404       .  A
C834        H839   1.085       .  S
C835        C836   1.410       .  A
C836        N837   1.428       .  S
N837        O841   1.261       .  A
N837        O842   1.262       .  A
N840        O844   1.262       .  A
N840        O843   1.262       .  A
C845        C846   1.405       .  A
C845        C850   1.399       .  A
C845        H852   1.089       .  S
C846        C847   1.411       .  A
C847        C848   1.403       .  A
C847        N854   1.431       .  S
C848        C849   1.409       .  A
C848        H853   1.088       .  S
C849        C850   1.412       .  A
C850        N851   1.427       .  S
N851        O855   1.262       .  A
N851        O856   1.262       .  A
N854        O858   1.262       .  A
N854        O857   1.262       .  A
C859        C860   1.411       .  A
C859        C864   1.407       .  A
C859        H866   1.083       .  S
C860        C861   1.415       .  A
C861        C862   1.397       .  A
C861        N868   1.427       .  S
C862        C863   1.399       .  A
C862        H867   1.084       .  S
C863        C864   1.408       .  A
C864        N865   1.429       .  S
N865        O869   1.261       .  A
N865        O870   1.262       .  A
N868        O872   1.262       .  A
N868        O871   1.262       .  A
C873        C874   1.401       .  A
C873        C878   1.398   1_545  A
C873        H880   1.083       .  S
C874        C875   1.417       .  A
C875        C876   1.400   1_545  A
C875        N882   1.430       .  S
C876        C877   1.403       .  A
C876        H881   1.083       .  S
C877        C878   1.416       .  A
C878        N879   1.428       .  S
N879        O883   1.262       .  A
N879        O884   1.261       .  A
N882        O886   1.262       .  A
N882        O885   1.262       .  A
C887        C888   1.402       .  A
C887        C892   1.399       .  A
C887        H894   1.083       .  S
C888        C889   1.407       .  A
C889        C890   1.404       .  A
C889        N896   1.432       .  S
C890        C891   1.411       .  A
C890        H895   1.082       .  S
C891        C892   1.415       .  A
C892        N893   1.428       .  S
N893        O897   1.262       .  A
N893        O898   1.262       .  A
N896        O900   1.263       .  A
N896        O899   1.262       .  A
C901        C902   1.405       .  A
C901        C906   1.401       .  A
C901        H908   1.085       .  S
C902        C903   1.414       .  A
C903        C904   1.398       .  A
C903        N910   1.428       .  S
C904        C905   1.404       .  A
C904        H909   1.085       .  S
C905        C906   1.413       .  A
C906        N907   1.429       .  S
N907        O911   1.262       .  A
N907        O912   1.262       .  A
N910        O914   1.262       .  A
N910        O913   1.262       .  A
C915        C916   1.400       .  A
C915        C920   1.400       .  A
C915        H922   1.087       .  S
C916        C917   1.411       .  A
C917        C918   1.395       .  A
C917        N924   1.427       .  S
C918        C919   1.402       .  A
C918        H923   1.087       .  S
C919        C920   1.418       .  A
C920        N921   1.430       .  S
N921        O925   1.262       .  A
N921        O926   1.262       .  A
N924        O928   1.261       .  A
N924        O927   1.262       .  A
C929        C930   1.408       .  A
C929        C934   1.402   1_655  A
C929        H936   1.084       .  S
C930        C931   1.414       .  A
C931        C932   1.404   1_655  A
C931        N938   1.429       .  S
C932        C933   1.408       .  A
C932        H937   1.085       .  S
C933        C934   1.412       .  A
C934        N935   1.429       .  S
N935        O939   1.262       .  A
N935        O940   1.262       .  A
N938        O942   1.262       .  A
N938        O941   1.262       .  A
C943        C944   1.404       .  A
C943        C948   1.399   1_655  A
C943        H950   1.083       .  S
C944        C945   1.417       .  A
C945        C946   1.396   1_655  A
C945        N952   1.430       .  S
C946        C947   1.401       .  A
C946        H951   1.084       .  S
C947        C948   1.412       .  A
C948        N949   1.429       .  S
N949        O953   1.262       .  A
N949        O954   1.262       .  A
N952        O956   1.262       .  A
N952        O955   1.262       .  A
C957        C958   1.406       .  A
C957        C962   1.400       .  A
C957        H964   1.089       .  S
C958        C959   1.412       .  A
C959        C960   1.400       .  A
C959        N966   1.429       .  S
C960        C961   1.407       .  A
C960        H965   1.089       .  S
C961        C962   1.412       .  A
C962        N963   1.429       .  S
N963        O967   1.262       .  A
N963        O968   1.262       .  A
N966        O970   1.262       .  A
N966        O969   1.262       .  A
C971        C972   1.399       .  A
C971        C976   1.399       .  A
C971        H978   1.085       .  S
C972        C973   1.413       .  A
C973        C974   1.404       .  A
C973        N980   1.432       .  S
C974        C975   1.407       .  A
C974        H979   1.085       .  S
C975        C976   1.422       .  A
C976        N977   1.431       .  S
N977        O981   1.262       .  A
N977        O982   1.261       .  A
N980        O984   1.262       .  A
N980        O983   1.262       .  A
C985        C986   1.402       .  A
C985        C990   1.396       .  A
C985        H992   1.091       .  S
C986        C987   1.410       .  A
C987        C988   1.400       .  A
C987        N994   1.433       .  S
C988        C989   1.408       .  A
C988        H993   1.089       .  S
C989        C990   1.412       .  A
C990        N991   1.427       .  S
N991        O995   1.261       .  A
N991        O996   1.262       .  A
N994        O998   1.262       .  A
N994        O997   1.262       .  A
C999       C1000   1.404       .  A
C999       C1004   1.399       .  A
C999       H1006   1.087       .  S
C1000      C1001   1.411       .  A
C1001      C1002   1.401       .  A
C1001      N1008   1.429       .  S
C1002      C1003   1.407       .  A
C1002      H1007   1.086       .  S
C1003      C1004   1.415       .  A
C1004      N1005   1.429       .  S
N1005      O1009   1.262       .  A
N1005      O1010   1.262       .  A
N1008      O1012   1.262       .  A
N1008      O1011   1.262       .  A
C1013      C1014   1.403       .  A
C1013      C1018   1.400       .  A
C1013      H1020   1.083       .  S
C1014      C1015   1.416       .  A
C1015      C1016   1.402       .  A
C1015      N1022   1.430       .  S
C1016      C1017   1.405       .  A
C1016      H1021   1.083       .  S
C1017      C1018   1.414       .  A
C1018      N1019   1.428       .  S
N1019      O1023   1.262       .  A
N1019      O1024   1.261       .  A
N1022      O1026   1.262       .  A
N1022      O1025   1.262       .  A
C1027      C1028   1.400       .  A
C1027      C1032   1.397       .  A
C1027      H1034   1.090       .  S
C1028      C1029   1.406       .  A
C1029      C1030   1.401       .  A
C1029      N1036   1.429       .  S
C1030      C1031   1.410       .  A
C1030      H1035   1.087       .  S
C1031      C1032   1.413       .  A
C1032      N1033   1.428       .  S
N1033      O1037   1.262       .  A
N1033      O1038   1.262       .  A
N1036      O1040   1.262       .  A
N1036      O1039   1.262       .  A
C1041      C1042   1.406       .  A
C1041      C1046   1.398       .  A
C1041      H1048   1.082       .  S
C1042      C1043   1.411       .  A
C1043      C1044   1.395       .  A
C1043      N1050   1.431       .  S
C1044      C1045   1.404       .  A
C1044      H1049   1.082       .  S
C1045      C1046   1.410       .  A
C1046      N1047   1.430       .  S
N1047      O1051   1.262       .  A
N1047      O1052   1.262       .  A
N1050      O1054   1.262       .  A
N1050      O1053   1.262       .  A
C1055      C1056   1.405       .  A
C1055      C1060   1.398       .  A
C1055      H1062   1.087       .  S
C1056      C1057   1.417       .  A
C1057      C1058   1.402       .  A
C1057      N1064   1.428       .  S
C1058      C1059   1.402       .  A
C1058      H1063   1.087       .  S
C1059      C1060   1.413       .  A
C1060      N1061   1.429       .  S
N1061      O1065   1.262       .  A
N1061      O1066   1.262       .  A
N1064      O1068   1.261       .  A
N1064      O1067   1.262       .  A
C1069      C1070   1.400       .  A
C1069      C1074   1.399       .  A
C1069      H1076   1.084       .  S
C1070      C1071   1.412       .  A
C1071      C1072   1.400       .  A
C1071      N1078   1.430       .  S
C1072      C1073   1.406       .  A
C1072      H1077   1.083       .  S
C1073      C1074   1.420       .  A
C1074      N1075   1.431       .  S
N1075      O1079   1.262       .  A
N1075      O1080   1.261       .  A
N1078      O1082   1.262       .  A
N1078      O1081   1.262       .  A
C1083      C1084   1.406       .  A
C1083      C1088   1.401       .  A
C1083      H1090   1.087       .  S
C1084      C1085   1.417       .  A
C1085      C1086   1.399       .  A
C1085      N1092   1.429       .  S
C1086      C1087   1.402       .  A
C1086      H1091   1.087       .  S
C1087      C1088   1.411       .  A
C1088      N1089   1.428       .  S
N1089      O1093   1.262       .  A
N1089      O1094   1.262       .  A
N1092      O1096   1.262       .  A
N1092      O1095   1.262       .  A
C1097      C1098   1.406       .  A
C1097      C1102   1.398       .  A
C1097      H1104   1.084       .  S
C1098      C1099   1.417       .  A
C1099      C1100   1.398       .  A
C1099      N1106   1.429       .  S
C1100      C1101   1.401       .  A
C1100      H1105   1.085       .  S
C1101      C1102   1.411       .  A
C1102      N1103   1.429       .  S
N1103      O1107   1.262       .  A
N1103      O1108   1.262       .  A
N1106      O1110   1.261       .  A
N1106      O1109   1.262       .  A
C1111      C1112   1.398       .  A
C1111      C1116   1.397   1_565  A
C1111      H1118   1.084       .  S
C1112      C1113   1.413       .  A
C1113      C1114   1.400   1_565  A
C1113      N1120   1.429       .  S
C1114      C1115   1.405       .  A
C1114      H1119   1.084       .  S
C1115      C1116   1.421       .  A
C1116      N1117   1.432       .  S
N1117      O1121   1.262       .  A
N1117      O1122   1.261       .  A
N1120      O1124   1.262       .  A
N1120      O1123   1.262       .  A
C1125      C1126   1.406       .  A
C1125      C1130   1.398       .  A
C1125      H1132   1.086       .  S
C1126      C1127   1.409       .  A
C1127      C1128   1.400       .  A
C1127      N1134   1.429       .  S
C1128      C1129   1.408       .  A
C1128      H1133   1.085       .  S
C1129      C1130   1.412       .  A
C1130      N1131   1.429       .  S
N1131      O1135   1.262       .  A
N1131      O1136   1.262       .  A
N1134      O1138   1.262       .  A
N1134      O1137   1.262       .  A
C1139      C1140   1.406       .  A
C1139      C1144   1.400       .  A
C1139      H1146   1.084       .  S
C1140      C1141   1.419       .  A
C1141      C1142   1.397       .  A
C1141      N1148   1.430       .  S
C1142      C1143   1.400       .  A
C1142      H1147   1.085       .  S
C1143      C1144   1.411       .  A
C1144      N1145   1.429       .  S
N1145      O1149   1.262       .  A
N1145      O1150   1.262       .  A
N1148      O1152   1.261       .  A
N1148      O1151   1.262       .  A
C1153      C1154   1.398       .  A
C1153      C1158   1.395   1_655  A
C1153      H1160   1.084       .  S
C1154      C1155   1.411       .  A
C1155      C1156   1.400   1_655  A
C1155      N1162   1.430       .  S
C1156      C1157   1.405       .  A
C1156      H1161   1.083       .  S
C1157      C1158   1.421       .  A
C1158      N1159   1.431       .  S
N1159      O1163   1.262       .  A
N1159      O1164   1.261       .  A
N1162      O1166   1.262       .  A
N1162      O1165   1.262       .  A
C1167      C1168   1.401       .  A
C1167      C1172   1.397       .  A
C1167      H1174   1.089       .  S
C1168      C1169   1.410       .  A
C1169      C1170   1.403       .  A
C1169      N1176   1.431       .  S
C1170      C1171   1.409       .  A
C1170      H1175   1.087       .  S
C1171      C1172   1.414       .  A
C1172      N1173   1.427       .  S
N1173      O1177   1.261       .  A
N1173      O1178   1.262       .  A
N1176      O1180   1.262       .  A
N1176      O1179   1.262       .  A
C1181      C1182   1.406       .  A
C1181      C1186   1.400       .  A
C1181      H1188   1.088       .  S
C1182      C1183   1.410       .  A
C1183      C1184   1.398       .  A
C1183      N1190   1.429       .  S
C1184      C1185   1.407       .  A
C1184      H1189   1.088       .  S
C1185      C1186   1.413       .  A
C1186      N1187   1.428       .  S
N1187      O1191   1.262       .  A
N1187      O1192   1.262       .  A
N1190      O1194   1.262       .  A
N1190      O1193   1.262       .  A
C1195      C1196   1.404       .  A
C1195      C1200   1.400   1_655  A
C1195      H1202   1.085       .  S
C1196      C1197   1.417       .  A
C1197      C1198   1.404   1_655  A
C1197      N1204   1.429       .  S
C1198      C1199   1.405       .  A
C1198      H1203   1.084       .  S
C1199      C1200   1.417       .  A
C1200      N1201   1.429       .  S
N1201      O1205   1.262       .  A
N1201      O1206   1.262       .  A
N1204      O1208   1.262       .  A
N1204      O1207   1.262       .  A
C1209      C1210   1.403       .  A
C1209      C1214   1.395   1_565  A
C1209      H1216   1.083       .  S
C1210      C1211   1.415       .  A
C1211      C1212   1.400   1_565  A
C1211      N1218   1.429       .  S
C1212      C1213   1.405       .  A
C1212      H1217   1.083       .  S
C1213      C1214   1.416       .  A
C1214      N1215   1.430       .  S
N1215      O1219   1.262       .  A
N1215      O1220   1.262       .  A
N1218      O1222   1.262       .  A
N1218      O1221   1.262       .  A
C1223      C1224   1.405       .  A
C1223      C1228   1.397       .  A
C1223      H1230   1.082       .  S
C1224      C1225   1.413       .  A
C1225      C1226   1.398       .  A
C1225      N1232   1.429       .  S
C1226      C1227   1.406       .  A
C1226      H1231   1.083       .  S
C1227      C1228   1.413       .  A
C1228      N1229   1.429       .  S
N1229      O1233   1.261       .  A
N1229      O1234   1.262       .  A
N1232      O1236   1.262       .  A
N1232      O1235   1.262       .  A
C1237      C1238   1.401       .  A
C1237      C1242   1.396       .  A
C1237      H1244   1.084       .  S
C1238      C1239   1.416       .  A
C1239      C1240   1.404       .  A
C1239      N1246   1.430       .  S
C1240      C1241   1.406       .  A
C1240      H1245   1.083       .  S
C1241      C1242   1.416       .  A
C1242      N1243   1.428       .  S
N1243      O1247   1.261       .  A
N1243      O1248   1.262       .  A
N1246      O1250   1.262       .  A
N1246      O1249   1.262       .  A
C1251      C1252   1.405       .  A
C1251      C1256   1.399       .  A
C1251      H1258   1.084       .  S
C1252      C1253   1.414       .  A
C1253      C1254   1.400       .  A
C1253      N1260   1.428       .  S
C1254      C1255   1.404       .  A
C1254      H1259   1.084       .  S
C1255      C1256   1.414       .  A
C1256      N1257   1.429       .  S
N1257      O1261   1.262       .  A
N1257      O1262   1.262       .  A
N1260      O1264   1.261       .  A
N1260      O1263   1.262       .  A
C1265      C1266   1.398       .  A
C1265      C1270   1.395   1_556  A
C1265      H1272   1.085       .  S
C1266      C1267   1.411       .  A
C1267      C1268   1.401   1_556  A
C1267      N1274   1.430       .  S
C1268      C1269   1.407       .  A
C1268      H1273   1.085       .  S
C1269      C1270   1.419       .  A
C1270      N1271   1.430       .  S
N1271      O1275   1.262       .  A
N1271      O1276   1.261       .  A
N1274      O1278   1.262       .  A
N1274      O1277   1.262       .  A
C1279      C1280   1.407       .  A
C1279      C1284   1.398   1_556  A
C1279      H1286   1.083       .  S
C1280      C1281   1.412       .  A
C1281      C1282   1.400   1_556  A
C1281      N1288   1.429       .  S
C1282      C1283   1.405       .  A
C1282      H1287   1.083       .  S
C1283      C1284   1.413       .  A
C1284      N1285   1.431       .  S
N1285      O1289   1.262       .  A
N1285      O1290   1.262       .  A
N1288      O1292   1.262       .  A
N1288      O1291   1.262       .  A
C1293      C1294   1.401       .  A
C1293      C1298   1.403       .  A
C1293      H1300   1.088       .  S
C1294      C1295   1.409       .  A
C1295      C1296   1.396       .  A
C1295      N1302   1.429       .  S
C1296      C1297   1.405       .  A
C1296      H1301   1.088       .  S
C1297      C1298   1.418       .  A
C1298      N1299   1.429       .  S
N1299      O1303   1.262       .  A
N1299      O1304   1.262       .  A
N1302      O1306   1.262       .  A
N1302      O1305   1.262       .  A
C1307      C1308   1.408       .  A
C1307      C1312   1.401       .  A
C1307      H1314   1.085       .  S
C1308      C1309   1.414       .  A
C1309      C1310   1.399       .  A
C1309      N1316   1.427       .  S
C1310      C1311   1.402       .  A
C1310      H1315   1.086       .  S
C1311      C1312   1.412       .  A
C1312      N1313   1.429       .  S
N1313      O1317   1.262       .  A
N1313      O1318   1.262       .  A
N1316      O1320   1.262       .  A
N1316      O1319   1.262       .  A
C1321      C1322   1.403       .  A
C1321      C1326   1.399       .  A
C1321      H1328   1.085       .  S
C1322      C1323   1.410       .  A
C1323      C1324   1.399       .  A
C1323      N1330   1.429       .  S
C1324      C1325   1.407       .  A
C1324      H1329   1.085       .  S
C1325      C1326   1.415       .  A
C1326      N1327   1.429       .  S
N1327      O1331   1.262       .  A
N1327      O1332   1.262       .  A
N1330      O1334   1.262       .  A
N1330      O1333   1.262       .  A
C1335      C1336   1.404       .  A
C1335      C1340   1.392       .  A
C1335      H1342   1.091       .  S
C1336      C1337   1.417       .  A
C1337      C1338   1.399       .  A
C1337      N1344   1.429       .  S
C1338      C1339   1.399       .  A
C1338      H1343   1.092       .  S
C1339      C1340   1.407       .  A
C1340      N1341   1.429       .  S
N1341      O1345   1.262       .  A
N1341      O1346   1.262       .  A
N1344      O1348   1.262       .  A
N1344      O1347   1.262       .  A
C1349      C1350   1.405       .  A
C1349      C1354   1.403       .  A
C1349      H1356   1.084       .  S
C1350      C1351   1.409       .  A
C1351      C1352   1.398       .  A
C1351      N1358   1.430       .  S
C1352      C1353   1.408       .  A
C1352      H1357   1.083       .  S
C1353      C1354   1.414       .  A
C1354      N1355   1.429       .  S
N1355      O1359   1.262       .  A
N1355      O1360   1.262       .  A
N1358      O1362   1.262       .  A
N1358      O1361   1.262       .  A
C1363      C1364   1.404       .  A
C1363      C1368   1.395       .  A
C1363      H1370   1.088       .  S
C1364      C1365   1.418       .  A
C1365      C1366   1.400       .  A
C1365      N1372   1.430       .  S
C1366      C1367   1.400       .  A
C1366      H1371   1.089       .  S
C1367      C1368   1.410       .  A
C1368      N1369   1.429       .  S
N1369      O1373   1.262       .  A
N1369      O1374   1.262       .  A
N1372      O1376   1.261       .  A
N1372      O1375   1.262       .  A
C1377      C1378   1.405       .  A
C1377      C1382   1.398       .  A
C1377      H1384   1.083       .  S
C1378      C1379   1.409       .  A
C1379      C1380   1.401       .  A
C1379      N1386   1.429       .  S
C1380      C1381   1.409       .  A
C1380      H1385   1.082       .  S
C1381      C1382   1.412       .  A
C1382      N1383   1.428       .  S
N1383      O1387   1.262       .  A
N1383      O1388   1.262       .  A
N1386      O1390   1.262       .  A
N1386      O1389   1.262       .  A
C1391      C1392   1.409       .  A
C1391      C1396   1.404       .  A
C1391      H1398   1.085       .  S
C1392      C1393   1.414       .  A
C1393      C1394   1.403       .  A
C1393      N1400   1.428       .  S
C1394      C1395   1.406       .  A
C1394      H1399   1.085       .  S
C1395      C1396   1.413       .  A
C1396      N1397   1.428       .  S
N1397      O1401   1.262       .  A
N1397      O1402   1.262       .  A
N1400      O1404   1.262       .  A
N1400      O1403   1.262       .  A
C1405      C1406   1.405       .  A
C1405      C1410   1.398       .  A
C1405      H1412   1.083       .  S
C1406      C1407   1.411       .  A
C1407      C1408   1.402       .  A
C1407      N1414   1.429       .  S
C1408      C1409   1.408       .  A
C1408      H1413   1.083       .  S
C1409      C1410   1.413       .  A
C1410      N1411   1.429       .  S
N1411      O1415   1.262       .  A
N1411      O1416   1.262       .  A
N1414      O1418   1.262       .  A
N1414      O1417   1.262       .  A
C1419      C1420   1.403       .  A
C1419      C1424   1.398       .  A
C1419      H1426   1.084       .  S
C1420      C1421   1.410       .  A
C1421      C1422   1.399       .  A
C1421      N1428   1.429       .  S
C1422      C1423   1.409       .  A
C1422      H1427   1.084       .  S
C1423      C1424   1.415       .  A
C1424      N1425   1.431       .  S
N1425      O1429   1.262       .  A
N1425      O1430   1.262       .  A
N1428      O1432   1.262       .  A
N1428      O1431   1.262       .  A
C1433      C1434   1.406       .  A
C1433      C1438   1.398       .  A
C1433      H1440   1.085       .  S
C1434      C1435   1.413       .  A
C1435      C1436   1.399       .  A
C1435      N1442   1.433       .  S
C1436      C1437   1.407       .  A
C1436      H1441   1.085       .  S
C1437      C1438   1.411       .  A
C1438      N1439   1.428       .  S
N1439      O1443   1.261       .  A
N1439      O1444   1.262       .  A
N1442      O1446   1.262       .  A
N1442      O1445   1.262       .  A
C1447      C1448   1.403       .  A
C1447      C1452   1.401   1_556  A
C1447      H1454   1.084       .  S
C1448      C1449   1.415       .  A
C1449      C1450   1.398   1_556  A
C1449      N1456   1.428       .  S
C1450      C1451   1.402       .  A
C1450      H1455   1.084       .  S
C1451      C1452   1.416       .  A
C1452      N1453   1.429       .  S
N1453      O1457   1.262       .  A
N1453      O1458   1.262       .  A
N1456      O1460   1.261       .  A
N1456      O1459   1.262       .  A
C1461      C1462   1.403       .  A
C1461      C1466   1.398       .  A
C1461      H1468   1.088       .  S
C1462      C1463   1.413       .  A
C1463      C1464   1.398       .  A
C1463      N1470   1.428       .  S
C1464      C1465   1.402       .  A
C1464      H1469   1.088       .  S
C1465      C1466   1.415       .  A
C1466      N1467   1.429       .  S
N1467      O1471   1.262       .  A
N1467      O1472   1.262       .  A
N1470      O1474   1.261       .  A
N1470      O1473   1.262       .  A
C1475      C1476   1.404       .  A
C1475      C1480   1.395   1_565  A
C1475      H1482   1.084       .  S
C1476      C1477   1.413       .  A
C1477      C1478   1.401   1_565  A
C1477      N1484   1.429       .  S
C1478      C1479   1.406       .  A
C1478      H1483   1.084       .  S
C1479      C1480   1.413       .  A
C1480      N1481   1.432       .  S
N1481      O1485   1.262       .  A
N1481      O1486   1.262       .  A
N1484      O1488   1.262       .  A
N1484      O1487   1.262       .  A
C1489      C1490   1.405       .  A
C1489      C1494   1.397   1_556  A
C1489      H1496   1.085       .  S
C1490      C1491   1.412       .  A
C1491      C1492   1.399   1_556  A
C1491      N1498   1.429       .  S
C1492      C1493   1.406       .  A
C1492      H1497   1.085       .  S
C1493      C1494   1.412       .  A
C1494      N1495   1.431       .  S
N1495      O1499   1.262       .  A
N1495      O1500   1.262       .  A
N1498      O1502   1.262       .  A
N1498      O1501   1.262       .  A
C1503      C1504   1.404       .  A
C1503      C1508   1.398       .  A
C1503      H1510   1.088       .  S
C1504      C1505   1.415       .  A
C1505      C1506   1.399       .  A
C1505      N1512   1.428       .  S
C1506      C1507   1.403       .  A
C1506      H1511   1.089       .  S
C1507      C1508   1.413       .  A
C1508      N1509   1.429       .  S
N1509      O1513   1.262       .  A
N1509      O1514   1.262       .  A
N1512      O1516   1.261       .  A
N1512      O1515   1.262       .  A
C1517      C1518   1.405       .  A
C1517      C1522   1.401       .  A
C1517      H1524   1.085       .  S
C1518      C1519   1.412       .  A
C1519      C1520   1.396       .  A
C1519      N1526   1.428       .  S
C1520      C1521   1.403       .  A
C1520      H1525   1.084       .  S
C1521      C1522   1.415       .  A
C1522      N1523   1.429       .  S
N1523      O1527   1.262       .  A
N1523      O1528   1.262       .  A
N1526      O1530   1.261       .  A
N1526      O1529   1.262       .  A
C1531      C1532   1.408       .  A
C1531      C1536   1.399       .  A
C1531      H1538   1.084       .  S
C1532      C1533   1.413       .  A
C1533      C1534   1.398       .  A
C1533      N1540   1.428       .  S
C1534      C1535   1.404       .  A
C1534      H1539   1.085       .  S
C1535      C1536   1.411       .  A
C1536      N1537   1.431       .  S
N1537      O1541   1.262       .  A
N1537      O1542   1.262       .  A
N1540      O1544   1.262       .  A
N1540      O1543   1.262       .  A
C1545      C1546   1.406       .  A
C1545      C1550   1.396   1_565  A
C1545      H1552   1.083       .  S
C1546      C1547   1.413       .  A
C1547      C1548   1.402   1_565  A
C1547      N1554   1.429       .  S
C1548      C1549   1.405       .  A
C1548      H1553   1.083       .  S
C1549      C1550   1.411       .  A
C1550      N1551   1.431       .  S
N1551      O1555   1.262       .  A
N1551      O1556   1.262       .  A
N1554      O1558   1.262       .  A
N1554      O1557   1.262       .  A
C1559      C1560   1.405       .  A
C1559      C1564   1.398       .  A
C1559      H1566   1.085       .  S
C1560      C1561   1.418       .  A
C1561      C1562   1.397       .  A
C1561      N1568   1.429       .  S
C1562      C1563   1.400       .  A
C1562      H1567   1.085       .  S
C1563      C1564   1.411       .  A
C1564      N1565   1.429       .  S
N1565      O1569   1.262       .  A
N1565      O1570   1.262       .  A
N1568      O1572   1.262       .  A
N1568      O1571   1.262       .  A
C1573      C1574   1.401       .  A
C1573      C1578   1.394       .  A
C1573      H1580   1.085       .  S
C1574      C1575   1.420       .  A
C1575      C1576   1.402       .  A
C1575      N1582   1.430       .  S
C1576      C1577   1.400       .  A
C1576      H1581   1.086       .  S
C1577      C1578   1.410       .  A
C1578      N1579   1.426       .  S
N1579      O1583   1.262       .  A
N1579      O1584   1.261       .  A
N1582      O1586   1.261       .  A
N1582      O1585   1.262       .  A
C1587      C1588   1.410       .  A
C1587      C1592   1.403       .  A
C1587      H1594   1.084       .  S
C1588      C1589   1.414       .  A
C1589      C1590   1.400       .  A
C1589      N1596   1.428       .  S
C1590      C1591   1.404       .  A
C1590      H1595   1.085       .  S
C1591      C1592   1.409       .  A
C1592      N1593   1.431       .  S
N1593      O1597   1.262       .  A
N1593      O1598   1.262       .  A
N1596      O1600   1.262       .  A
N1596      O1599   1.262       .  A
C1601      C1602   1.408       .  A
C1601      C1606   1.402       .  A
C1601      H1608   1.085       .  S
C1602      C1603   1.413       .  A
C1603      C1604   1.397       .  A
C1603      N1610   1.432       .  S
C1604      C1605   1.406       .  A
C1604      H1609   1.085       .  S
C1605      C1606   1.411       .  A
C1606      N1607   1.429       .  S
N1607      O1611   1.262       .  A
N1607      O1612   1.262       .  A
N1610      O1614   1.262       .  A
N1610      O1613   1.262       .  A
C1615      C1616   1.407       .  A
C1615      C1620   1.397       .  A
C1615      H1622   1.084       .  S
C1616      C1617   1.414       .  A
C1617      C1618   1.400       .  A
C1617      N1624   1.429       .  S
C1618      C1619   1.403       .  A
C1618      H1623   1.084       .  S
C1619      C1620   1.409       .  A
C1620      N1621   1.430       .  S
N1621      O1625   1.261       .  A
N1621      O1626   1.262       .  A
N1624      O1628   1.262       .  A
N1624      O1627   1.262       .  A
C1629      C1630   1.403       .  A
C1629      C1634   1.401       .  A
C1629      H1636   1.084       .  S
C1630      C1631   1.415       .  A
C1631      C1632   1.400       .  A
C1631      N1638   1.428       .  S
C1632      C1633   1.404       .  A
C1632      H1637   1.084       .  S
C1633      C1634   1.415       .  A
C1634      N1635   1.429       .  S
N1635      O1639   1.262       .  A
N1635      O1640   1.261       .  A
N1638      O1642   1.261       .  A
N1638      O1641   1.262       .  A
C1643      C1644   1.403       .  A
C1643      C1648   1.397   1_556  A
C1643      H1650   1.084       .  S
C1644      C1645   1.413       .  A
C1645      C1646   1.396   1_556  A
C1645      N1652   1.432       .  S
C1646      C1647   1.405       .  A
C1646      H1651   1.083       .  S
C1647      C1648   1.414       .  A
C1648      N1649   1.430       .  S
N1649      O1653   1.262       .  A
N1649      O1654   1.262       .  A
N1652      O1656   1.262       .  A
N1652      O1655   1.262       .  A
C1657      C1658   1.407       .  A
C1657      C1662   1.397       .  A
C1657      H1664   1.084       .  S
C1658      C1659   1.411       .  A
C1659      C1660   1.393       .  A
C1659      N1666   1.429       .  S
C1660      C1661   1.403       .  A
C1660      H1665   1.084       .  S
C1661      C1662   1.408       .  A
C1662      N1663   1.429       .  S
N1663      O1667   1.262       .  A
N1663      O1668   1.262       .  A
N1666      O1670   1.262       .  A
N1666      O1669   1.262       .  A
C1671      C1672   1.400       .  A
C1671      C1676   1.395   1_655  A
C1671      H1678   1.085       .  S
C1672      C1673   1.409       .  A
C1673      C1674   1.396   1_655  A
C1673      N1680   1.428       .  S
C1674      C1675   1.405       .  A
C1674      H1679   1.084       .  S
C1675      C1676   1.418       .  A
C1676      N1677   1.431       .  S
N1677      O1681   1.262       .  A
N1677      O1682   1.261       .  A
N1680      O1684   1.261       .  A
N1680      O1683   1.262       .  A
C1685      C1686   1.403       .  A
C1685      C1690   1.397   1_556  A
C1685      H1692   1.085       .  S
C1686      C1687   1.412       .  A
C1687      C1688   1.399   1_556  A
C1687      N1694   1.432       .  S
C1688      C1689   1.407       .  A
C1688      H1693   1.084       .  S
C1689      C1690   1.413       .  A
C1690      N1691   1.429       .  S
N1691      O1695   1.262       .  A
N1691      O1696   1.262       .  A
N1694      O1698   1.262       .  A
N1694      O1697   1.262       .  A
C1699      C1700   1.410       .  A
C1699      C1704   1.401       .  A
C1699      H1706   1.085       .  S
C1700      C1701   1.413       .  A
C1701      C1702   1.396       .  A
C1701      N1708   1.425       .  S
C1702      C1703   1.399       .  A
C1702      H1707   1.086       .  S
C1703      C1704   1.405       .  A
C1704      N1705   1.429       .  S
N1705      O1709   1.262       .  A
N1705      O1710   1.262       .  A
N1708      O1712   1.262       .  A
N1708      O1711   1.262       .  A
C1713      C1714   1.400       .  A
C1713      C1718   1.400       .  A
C1713      H1720   1.087       .  S
C1714      C1715   1.408       .  A
C1715      C1716   1.396       .  A
C1715      N1722   1.429       .  S
C1716      C1717   1.406       .  A
C1716      H1721   1.087       .  S
C1717      C1718   1.417       .  A
C1718      N1719   1.430       .  S
N1719      O1723   1.262       .  A
N1719      O1724   1.262       .  A
N1722      O1726   1.262       .  A
N1722      O1725   1.262       .  A
C1727      C1728   1.406       .  A
C1727      C1732   1.397       .  A
C1727      H1734   1.084       .  S
C1728      C1729   1.416       .  A
C1729      C1730   1.401       .  A
C1729      N1736   1.429       .  S
C1730      C1731   1.403       .  A
C1730      H1735   1.084       .  S
C1731      C1732   1.411       .  A
C1732      N1733   1.431       .  S
N1733      O1737   1.261       .  A
N1733      O1738   1.262       .  A
N1736      O1740   1.262       .  A
N1736      O1739   1.262       .  A
C1741      C1742   1.401       .  A
C1741      C1746   1.401   1_655  A
C1741      H1748   1.084       .  S
C1742      C1743   1.414       .  A
C1743      C1744   1.400   1_655  A
C1743      N1750   1.427       .  S
C1744      C1745   1.403       .  A
C1744      H1749   1.084       .  S
C1745      C1746   1.419       .  A
C1746      N1747   1.429       .  S
N1747      O1751   1.262       .  A
N1747      O1752   1.261       .  A
N1750      O1754   1.261       .  A
N1750      O1753   1.262       .  A
C1755      C1756   1.407       .  A
C1755      C1760   1.398       .  A
C1755      H1762   1.082       .  S
C1756      C1757   1.414       .  A
C1757      C1758   1.399       .  A
C1757      N1764   1.431       .  S
C1758      C1759   1.405       .  A
C1758      H1763   1.082       .  S
C1759      C1760   1.411       .  A
C1760      N1761   1.429       .  S
N1761      O1765   1.262       .  A
N1761      O1766   1.262       .  A
N1764      O1768   1.262       .  A
N1764      O1767   1.262       .  A
C1769      C1770   1.401       .  A
C1769      C1774   1.401       .  A
C1769      H1776   1.085       .  S
C1770      C1771   1.407       .  A
C1771      C1772   1.406       .  A
C1771      N1778   1.430       .  S
C1772      C1773   1.410       .  A
C1772      H1777   1.084       .  S
C1773      C1774   1.415       .  A
C1774      N1775   1.429       .  S
N1775      O1779   1.262       .  A
N1775      O1780   1.262       .  A
N1778      O1782   1.262       .  A
N1778      O1781   1.262       .  A
C1783      C1784   1.404       .  A
C1783      C1788   1.395       .  A
C1783      H1790   1.086       .  S
C1784      C1785   1.415       .  A
C1785      C1786   1.398       .  A
C1785      N1792   1.429       .  S
C1786      C1787   1.404       .  A
C1786      H1791   1.087       .  S
C1787      C1788   1.411       .  A
C1788      N1789   1.428       .  S
N1789      O1793   1.262       .  A
N1789      O1794   1.261       .  A
N1792      O1796   1.262       .  A
N1792      O1795   1.262       .  A
C1797      C1798   1.407       .  A
C1797      C1802   1.400       .  A
C1797      H1804   1.084       .  S
C1798      C1799   1.410       .  A
C1799      C1800   1.398       .  A
C1799      N1806   1.429       .  S
C1800      C1801   1.407       .  A
C1800      H1805   1.084       .  S
C1801      C1802   1.411       .  A
C1802      N1803   1.429       .  S
N1803      O1807   1.262       .  A
N1803      O1808   1.262       .  A
N1806      O1810   1.262       .  A
N1806      O1809   1.262       .  A
C1811      C1812   1.400       .  A
C1811      C1816   1.396       .  A
C1811      H1818   1.084       .  S
C1812      C1813   1.408       .  A
C1813      C1814   1.397       .  A
C1813      N1820   1.427       .  S
C1814      C1815   1.405       .  A
C1814      H1819   1.083       .  S
C1815      C1816   1.418       .  A
C1816      N1817   1.430       .  S
N1817      O1821   1.262       .  A
N1817      O1822   1.261       .  A
N1820      O1824   1.262       .  A
N1820      O1823   1.262       .  A
C1825      C1826   1.404       .  A
C1825      C1830   1.400       .  A
C1825      H1832   1.085       .  S
C1826      C1827   1.417       .  A
C1827      C1828   1.404       .  A
C1827      N1834   1.432       .  S
C1828      C1829   1.406       .  A
C1828      H1833   1.085       .  S
C1829      C1830   1.414       .  A
C1830      N1831   1.429       .  S
N1831      O1835   1.261       .  A
N1831      O1836   1.262       .  A
N1834      O1838   1.262       .  A
N1834      O1837   1.262       .  A
C1839      C1840   1.408       .  A
C1839      C1844   1.400       .  A
C1839      H1846   1.084       .  S
C1840      C1841   1.414       .  A
C1841      C1842   1.400       .  A
C1841      N1848   1.429       .  S
C1842      C1843   1.405       .  A
C1842      H1847   1.085       .  S
C1843      C1844   1.410       .  A
C1844      N1845   1.429       .  S
N1845      O1849   1.262       .  A
N1845      O1850   1.262       .  A
N1848      O1852   1.262       .  A
N1848      O1851   1.262       .  A
C1853      C1854   1.408       .  A
C1853      C1858   1.400   1_655  A
C1853      H1860   1.085       .  S
C1854      C1855   1.416       .  A
C1855      C1856   1.399   1_655  A
C1855      N1862   1.429       .  S
C1856      C1857   1.402       .  A
C1856      H1861   1.085       .  S
C1857      C1858   1.411       .  A
C1858      N1859   1.429       .  S
N1859      O1863   1.262       .  A
N1859      O1864   1.262       .  A
N1862      O1866   1.262       .  A
N1862      O1865   1.262       .  A
C1867      C1868   1.407       .  A
C1867      C1872   1.400   1_556  A
C1867      H1874   1.084       .  S
C1868      C1869   1.418       .  A
C1869      C1870   1.398   1_556  A
C1869      N1876   1.431       .  S
C1870      C1871   1.401       .  A
C1870      H1875   1.084       .  S
C1871      C1872   1.410       .  A
C1872      N1873   1.429       .  S
N1873      O1877   1.262       .  A
N1873      O1878   1.262       .  A
N1876      O1880   1.261       .  A
N1876      O1879   1.262       .  A
C1881      C1882   1.403       .  A
C1881      C1886   1.405       .  A
C1881      H1888   1.087       .  S
C1882      C1883   1.407       .  A
C1883      C1884   1.393       .  A
C1883      N1890   1.427       .  S
C1884      C1885   1.404       .  A
C1884      H1889   1.087       .  S
C1885      C1886   1.418       .  A
C1886      N1887   1.430       .  S
N1887      O1891   1.261       .  A
N1887      O1892   1.262       .  A
N1890      O1894   1.262       .  A
N1890      O1893   1.262       .  A
C1895      C1896   1.406       .  A
C1895      C1900   1.400       .  A
C1895      H1902   1.085       .  S
C1896      C1897   1.411       .  A
C1897      C1898   1.400       .  A
C1897      N1904   1.429       .  S
C1898      C1899   1.408       .  A
C1898      H1903   1.085       .  S
C1899      C1900   1.413       .  A
C1900      N1901   1.429       .  S
N1901      O1905   1.262       .  A
N1901      O1906   1.262       .  A
N1904      O1908   1.262       .  A
N1904      O1907   1.262       .  A
C1909      C1910   1.405       .  A
C1909      C1914   1.401   1_565  A
C1909      H1916   1.085       .  S
C1910      C1911   1.410       .  A
C1911      C1912   1.396   1_565  A
C1911      N1918   1.429       .  S
C1912      C1913   1.407       .  A
C1912      H1917   1.085       .  S
C1913      C1914   1.414       .  A
C1914      N1915   1.429       .  S
N1915      O1919   1.262       .  A
N1915      O1920   1.262       .  A
N1918      O1922   1.262       .  A
N1918      O1921   1.262       .  A
C1923      C1924   1.403       .  A
C1923      C1928   1.399   1_556  A
C1923      H1930   1.086       .  S
C1924      C1925   1.409       .  A
C1925      C1926   1.398   1_556  A
C1925      N1932   1.429       .  S
C1926      C1927   1.409       .  A
C1926      H1931   1.085       .  S
C1927      C1928   1.413       .  A
C1928      N1929   1.427       .  S
N1929      O1933   1.262       .  A
N1929      O1934   1.262       .  A
N1932      O1936   1.262       .  A
N1932      O1935   1.262       .  A
C1937      C1938   1.401       .  A
C1937      C1942   1.396       .  A
C1937      H1944   1.087       .  S
C1938      C1939   1.412       .  A
C1939      C1940   1.403       .  A
C1939      N1946   1.433       .  S
C1940      C1941   1.407       .  A
C1940      H1945   1.086       .  S
C1941      C1942   1.415       .  A
C1942      N1943   1.428       .  S
N1943      O1947   1.262       .  A
N1943      O1948   1.262       .  A
N1946      O1950   1.262       .  A
N1946      O1949   1.262       .  A
C1951      C1952   1.404       .  A
C1951      C1956   1.400       .  A
C1951      H1958   1.083       .  S
C1952      C1953   1.417       .  A
C1953      C1954   1.403       .  A
C1953      N1960   1.429       .  S
C1954      C1955   1.404       .  A
C1954      H1959   1.084       .  S
C1955      C1956   1.415       .  A
C1956      N1957   1.429       .  S
N1957      O1961   1.262       .  A
N1957      O1962   1.262       .  A
N1960      O1964   1.262       .  A
N1960      O1963   1.262       .  A
C1965      C1966   1.406       .  A
C1965      C1970   1.402       .  A
C1965      H1972   1.082       .  S
C1966      C1967   1.415       .  A
C1967      C1968   1.398       .  A
C1967      N1974   1.429       .  S
C1968      C1969   1.404       .  A
C1968      H1973   1.083       .  S
C1969      C1970   1.415       .  A
C1970      N1971   1.430       .  S
N1971      O1975   1.262       .  A
N1971      O1976   1.262       .  A
N1974      O1978   1.262       .  A
N1974      O1977   1.262       .  A
C1979      C1980   1.398       .  A
C1979      C1984   1.396   1_655  A
C1979      H1986   1.084       .  S
C1980      C1981   1.411       .  A
C1981      C1982   1.398   1_655  A
C1981      N1988   1.428       .  S
C1982      C1983   1.403       .  A
C1982      H1987   1.084       .  S
C1983      C1984   1.422       .  A
C1984      N1985   1.432       .  S
N1985      O1989   1.262       .  A
N1985      O1990   1.261       .  A
N1988      O1992   1.261       .  A
N1988      O1991   1.262       .  A
C1993      C1994   1.405       .  A
C1993      C1998   1.401   1_565  A
C1993      H2000   1.084       .  S
C1994      C1995   1.411       .  A
C1995      C1996   1.396   1_565  A
C1995      N2002   1.431       .  S
C1996      C1997   1.407       .  A
C1996      H2001   1.084       .  S
C1997      C1998   1.413       .  A
C1998      N1999   1.429       .  S
N1999      O2003   1.262       .  A
N1999      O2004   1.262       .  A
N2002      O2006   1.261       .  A
N2002      O2005   1.262       .  A
C2007      C2008   1.407       .  A
C2007      C2012   1.399       .  A
C2007      H2014   1.084       .  S
C2008      C2009   1.414       .  A
C2009      C2010   1.401       .  A
C2009      N2016   1.429       .  S
C2010      C2011   1.406       .  A
C2010      H2015   1.084       .  S
C2011      C2012   1.412       .  A
C2012      N2013   1.429       .  S
N2013      O2017   1.262       .  A
N2013      O2018   1.262       .  A
N2016      O2020   1.262       .  A
N2016      O2019   1.262       .  A
C2021      C2022   1.408       .  A
C2021      C2026   1.402       .  A
C2021      H2028   1.087       .  S
C2022      C2023   1.413       .  A
C2023      C2024   1.394       .  A
C2023      N2030   1.427       .  S
C2024      C2025   1.401       .  A
C2024      H2029   1.088       .  S
C2025      C2026   1.411       .  A
C2026      N2027   1.432       .  S
N2027      O2031   1.262       .  A
N2027      O2032   1.262       .  A
N2030      O2034   1.262       .  A
N2030      O2033   1.262       .  A
C2035      C2036   1.404       .  A
C2035      C2040   1.395       .  A
C2035      H2042   1.086       .  S
C2036      C2037   1.417       .  A
C2037      C2038   1.397       .  A
C2037      N2044   1.429       .  S
C2038      C2039   1.400       .  A
C2038      H2043   1.086       .  S
C2039      C2040   1.408       .  A
C2040      N2041   1.427       .  S
N2041      O2045   1.262       .  A
N2041      O2046   1.262       .  A
N2044      O2048   1.261       .  A
N2044      O2047   1.261       .  A
