geometry optimzed in LAMMPS
_audit_creation_date              2020-11-30 
_audit_creation_method            'lammps2cif' 
_symmetry_space_group_name_H-M    'P1' 
_symmetry_Int_Tables_number       1 
_symmetry_cell_setting            triclinic 
loop_ 
_symmetry_equiv_pos_as_xyz 
  x,y,z 
_cell_length_a                    48.60762375 
_cell_length_b                    48.54597105755662 
_cell_length_c                    29.547924632422415 
_cell_angle_alpha                 89.88136669785037 
_cell_angle_beta                  89.19293279917594 
_cell_angle_gamma                 121.101316675305 
loop_ 
_atom_site_label 
_atom_site_type_symbol 
_atom_site_fract_x 
_atom_site_fract_y 
_atom_site_fract_z 
_atom_site_charge 
O1          O  0.12305147  0.29111718  0.18631521    -0.82900
C2          C  0.22514701  0.36513153  0.31170038     0.96500
O3          O  0.21971145  0.34261723  0.28526093    -0.72000
O4          O  0.16628924  0.28696169  0.29402318    -0.75600
Al5        Al  0.18814820  0.31518577  0.24485390     1.49000
C6          C  0.13635549  0.26747027  0.29584407     0.91700
O7          O  0.11575064  0.32696018  0.29824255    -0.81800
O8          O  0.16938583  0.38364403  0.20272888    -0.75400
Al9        Al  0.12280283  0.31108035  0.24312263     1.90100
O10         O  0.15359710  0.37791603  0.29230028    -0.74400
O11         O  0.22494953  0.38747718  0.22006721    -0.74300
O12         O  0.20781898  0.37752088  0.31068621    -0.79900
O13         O  0.21226780  0.34012388  0.19455251    -0.78100
O14         O  0.16570178  0.33455256  0.24827174    -1.14300
O15         O  0.16190594  0.28343894  0.20422179    -0.73500
C16         C  0.13770648  0.27610668  0.18105400     0.97200
C17         C  0.12668448  0.35615915  0.30797591     0.93600
Al18       Al  0.18675540  0.37764734  0.25573032     1.55600
O19         O  0.11726386  0.27402914  0.27658635    -0.78100
C20         C  0.23133546  0.37004035  0.19562456     0.97800
C21         C  0.13996213  0.37065246  0.19375271     0.92700
O22         O  0.11955344  0.34302898  0.20892835    -0.83400
C23         C  0.19891592  0.13178954  0.13728179     0.85400
C24         C  0.20061140  0.12242367  0.08802152    -0.54800
C25         C  0.21677113  0.10665389  0.08175787     0.08300
C26         C  0.22867905  0.09993759  0.12602219     0.19300
C27         C  0.18411752  0.09975561  0.16420425    -0.55500
C28         C  0.19764759  0.08164772  0.15565310     0.08400
C29         C  0.23379929  0.14996982  0.15303047    -0.55100
C30         C  0.24938089  0.13319434  0.14889888     0.09000
H31         H  0.18990064  0.12795172  0.06006963     0.13500
H32         H  0.24180945  0.08718439  0.12006869    -0.00700
H33         H  0.16517817  0.09175698  0.18886477     0.13800
H34         H  0.24388349  0.17260548  0.17091606     0.13600
C35         C  0.36278592  0.29927274  0.35573443     0.85400
C36         C  0.36691165  0.29448221  0.40609111    -0.54800
C37         C  0.38178644  0.27773470  0.41424020     0.08300
C38         C  0.39324130  0.26869991  0.37106090     0.19300
C39         C  0.39728350  0.31588484  0.33577648    -0.55500
C40         C  0.41397768  0.30117309  0.34573447     0.08400
C41         C  0.34647557  0.26555420  0.33567910    -0.55100
C42         C  0.36252028  0.24959421  0.34265990     0.09000
H43         H  0.35894136  0.30385970  0.43335254     0.13500
H44         H  0.40576044  0.25549962  0.37817150    -0.00700
H45         H  0.40851695  0.33789095  0.31618871     0.13800
H46         H  0.32555200  0.25630968  0.31433821     0.13600
C47         C  0.18603061  0.10888221  0.33849738     0.85400
C48         C  0.21493895  0.12057669  0.30724783    -0.54800
C49         C  0.23360061  0.10762321  0.31467227     0.08300
C50         C  0.21848045  0.07971794  0.35051545     0.19300
C51         C  0.16668271  0.07252101  0.32872912    -0.55500
C52         C  0.18309318  0.05665876  0.33539252     0.08400
C53         C  0.19822753  0.11108341  0.38652440    -0.55100
C54         C  0.21443101  0.09547318  0.39347861     0.09000
H55         H  0.22047378  0.13848010  0.28100621     0.13500
H56         H  0.23244414  0.06784942  0.35649136    -0.00700
H57         H  0.14178281  0.05998342  0.31850791     0.13800
H58         H  0.19257928  0.12240787  0.41387305     0.13600
C59         C  0.05426534  0.36325539  0.34012491     0.85400
C60         C  0.05832688  0.36049602  0.39060408    -0.54800
C61         C  0.08902883  0.37703984  0.40540843     0.08300
C62         C  0.11427941  0.39254166  0.36603447     0.19300
C63         C  0.07432684  0.39981998  0.32854571    -0.55500
C64         C  0.10540825  0.41547779  0.34296765     0.08400
C65         C  0.07379217  0.35042549  0.31773655    -0.55100
C66         C  0.10498835  0.36487940  0.33135030     0.09000
H67         H  0.03784598  0.34637559  0.41308482     0.13500
H68         H  0.13962676  0.40488966  0.37703823    -0.00700
H69         H  0.06484912  0.41260791  0.31066814     0.13800
H70         H  0.06455900  0.33276690  0.29110396     0.13600
C71         C  0.13067221  0.44042549  0.15636606     0.85400
C72         C  0.13202305  0.43339911  0.10611528    -0.54800
C73         C  0.11692822  0.40155147  0.09584202     0.08300
C74         C  0.10144392  0.37891516  0.13718467     0.19300
C75         C  0.09450742  0.42097248  0.16947858    -0.55500
C76         C  0.07870925  0.38907885  0.15839916     0.08400
C77         C  0.14385531  0.42232203  0.18128034    -0.55100
C78         C  0.12943837  0.39049161  0.17081233     0.09000
H79         H  0.14215807  0.45217505  0.08021069     0.13500
H80         H  0.08947605  0.35309128  0.12833614    -0.00700
H81         H  0.08172235  0.43110096  0.18603896     0.13800
H82         H  0.16241690  0.43347177  0.20654880     0.13600
C83         C  0.38526528  0.31556230  0.16128719     0.85400
C84         C  0.37418772  0.28587725  0.19066152    -0.54800
C85         C  0.38769789  0.26795564  0.18036042     0.08300
C86         C  0.41502327  0.28432651  0.14359860     0.19300
C87         C  0.42144744  0.33501454  0.17055272    -0.55500
C88         C  0.43771981  0.31963293  0.15989355     0.08400
C89         C  0.38263106  0.30445924  0.11230841    -0.55100
C90         C  0.39824027  0.28858647  0.10250197     0.09000
H91         H  0.35716437  0.27964989  0.21852803     0.13500
H92         H  0.42726798  0.27090601  0.13557646    -0.00700
H93         H  0.43320623  0.35897321  0.18468309     0.13800
H94         H  0.36964318  0.30927053  0.08688718     0.13600
C95         C  0.31292525  0.38300643  0.15852596     0.85400
C96         C  0.30708624  0.38683029  0.10874369    -0.54800
C97         C  0.29111138  0.40261643  0.10204088     0.08300
C98         C  0.28248403  0.41375428  0.14549677     0.19300
C99         C  0.32969387  0.41694606  0.17813391    -0.55500
C100        C  0.31513980  0.43426538  0.16974569     0.08400
C101        C  0.27946653  0.36698163  0.18122153    -0.55100
C102        C  0.26339433  0.38281694  0.17440696     0.09000
H103        H  0.31455745  0.37736995  0.08099593     0.13500
H104        H  0.26878027  0.42530349  0.13730164    -0.00700
H105        H  0.35195577  0.42651598  0.19592218     0.13800
H106        H  0.26945350  0.34590876  0.20301586     0.13600
C107        C  0.12150254  0.18484241  0.33538219     0.85400
C108        C  0.12094489  0.19391639  0.38473674    -0.54800
C109        C  0.10770794  0.21238289  0.39157824     0.08300
C110        C  0.09451085  0.21910339  0.34912576     0.19300
C111        C  0.08657047  0.16872791  0.31986631    -0.55500
C112        C  0.07166153  0.18562912  0.32877091     0.08400
C113        C  0.13804268  0.21751541  0.30957187    -0.55100
C114        C  0.12395312  0.23547053  0.31709289     0.09000
H115        H  0.13135467  0.18732827  0.41192860     0.13500
H116        H  0.08371198  0.23386463  0.35665769    -0.00700
H117        H  0.07399194  0.14509376  0.30473337     0.13800
H118        H  0.15851801  0.22564529  0.28669681     0.13600
C119        C  0.43020584  0.11832656  0.33960439     0.85400
C120        C  0.42442575  0.12272761  0.38908898    -0.54800
C121        C  0.39309328  0.11087568  0.40191749     0.08300
C122        C  0.36943897  0.09441770  0.36264659     0.19300
C123        C  0.40870676  0.08187214  0.33188327    -0.55500
C124        C  0.37717309  0.06894744  0.34527028     0.08400
C125        C  0.41332166  0.13254628  0.31303667    -0.55100
C126        C  0.38194034  0.12058425  0.32512977     0.09000
H127        H  0.44417703  0.13396297  0.41260212     0.13500
H128        H  0.34383575  0.08477323  0.37156112    -0.00700
H129        H  0.41771391  0.06708907  0.31883698     0.13800
H130        H  0.42449349  0.14990412  0.28556925     0.13600
C131        C  0.30313345  0.37860548  0.36043755     0.85400
C132        C  0.27211789  0.36330116  0.33475935    -0.54800
C133        C  0.25405186  0.37719956  0.34006058     0.08300
C134        C  0.26944427  0.40655902  0.37207448     0.19300
C135        C  0.32114664  0.41451864  0.34663675    -0.55500
C136        C  0.30365446  0.42930968  0.35237275     0.08400
C137        C  0.29323450  0.37924707  0.40970022    -0.55100
C138        C  0.27593488  0.39387040  0.41616616     0.09000
H139        H  0.26543249  0.34285166  0.31291987     0.13500
H140        H  0.25512346  0.41817257  0.37754995    -0.00700
H141        H  0.34668157  0.42845986  0.33931182     0.13800
H142        H  0.30153324  0.37111987  0.43783521     0.13600
C143        C  0.38734612  0.07515734  0.16099606     0.85400
C144        C  0.38330860  0.07797865  0.11012349    -0.54800
C145        C  0.39386604  0.10841465  0.09415892     0.08300
C146        C  0.40917001  0.13409337  0.13134082     0.19300
C147        C  0.42321785  0.09838084  0.16939687    -0.55500
C148        C  0.43514066  0.12865757  0.15189326     0.08400
C149        C  0.37188373  0.09218168  0.18373897    -0.55100
C150        C  0.38266184  0.12240695  0.16797954     0.09000
H151        H  0.37263630  0.05698420  0.08853588     0.13500
H152        H  0.41774613  0.15912819  0.12067858    -0.00700
H153        H  0.43871079  0.09247499  0.18716184     0.13800
H154        H  0.35418330  0.08151718  0.21123121     0.13600
C155        C  0.12378179  0.19746887  0.13091071     0.85400
C156        C  0.13960695  0.22874071  0.15696548    -0.54800
C157        C  0.12621856  0.24739993  0.15193829     0.08300
C158        C  0.09743673  0.23275419  0.11952155     0.19300
C159        C  0.08792206  0.18046149  0.14455345    -0.55500
C160        C  0.07391508  0.19868326  0.13895078     0.08400
C161        C  0.12365752  0.20753180  0.08185593    -0.55100
C162        C  0.11038030  0.22608316  0.07554935     0.09000
H163        H  0.15956706  0.23493209  0.17922164     0.13500
H164        H  0.08682189  0.24787046  0.11371510    -0.00700
H165        H  0.07350077  0.15503743  0.15228566     0.13800
H166        H  0.13275934  0.19993151  0.05373813     0.13600
O167        O  0.38605855  0.21884976  0.20357393    -0.82900
C168        C  0.26592806  0.12400605  0.29187857     0.96500
O169        O  0.27485613  0.15098156  0.27362566    -0.72000
O170        O  0.32573946  0.20194837  0.30521113    -0.75600
Al171      Al  0.31235638  0.18549143  0.24645392     1.49000
C172        C  0.35467681  0.22122856  0.31500979     0.91700
O173        O  0.37499551  0.16335272  0.30356394    -0.81800
O174        O  0.33920826  0.12806420  0.18676581    -0.75400
Al175      Al  0.37727319  0.18904734  0.25343782     1.90100
O176        O  0.34077399  0.11553971  0.27681470    -0.74400
O177        O  0.28129072  0.12093189  0.19653855    -0.74300
O178        O  0.28371155  0.11216728  0.28880778    -0.79900
O179        O  0.29609971  0.17155499  0.18748577    -0.78100
O180        O  0.33436769  0.16582408  0.24606281    -1.14300
O181        O  0.34517098  0.22437165  0.21960496    -0.73500
C182        C  0.37258686  0.23517310  0.20146855     0.97200
C183        C  0.36377412  0.13337024  0.30250636     0.93600
Al184      Al  0.31335820  0.12298658  0.23789769     1.55600
O185        O  0.37702860  0.21927796  0.29581849    -0.78100
C186        C  0.27789476  0.14237284  0.17740287     0.97800
C187        C  0.36925541  0.14048943  0.18785623     0.92700
O188        O  0.38646100  0.16373921  0.21343267    -0.83400
C189        C  0.48799719  0.18014290  0.16276460    -0.10200
C190        C  0.47025917  0.14955137  0.14350811     0.06000
C191        C  0.48671377  0.13751242  0.11873280    -0.04000
C192        C  0.01999734  0.15357208  0.11899884    -0.08400
C193        C  0.03818305  0.18333980  0.14038581     0.05100
C194        C  0.02177499  0.19755120  0.15999190    -0.03500
Br195      Br  0.04382299  0.24029294  0.18291040    -0.03200
H196        H  0.47559724  0.19025181  0.18042068     0.09000
H197        H  0.03189172  0.14333946  0.10033703     0.07000
Br198      Br  0.46504499  0.10031347  0.08102053    -0.03600
C199        C  0.40841913  0.14134799  0.47342018    -0.10200
C200        C  0.38542769  0.11388218  0.45019193     0.06000
C201        C  0.36078483  0.08825304  0.47591061    -0.04000
C202        C  0.36239468  0.08950752  0.02312260    -0.08400
C203        C  0.38927056  0.11405552  0.04574838     0.05100
C204        C  0.41202526  0.14110853  0.02011297    -0.03500
Br205      Br  0.45142502  0.17577065  0.04315031    -0.03200
H206        H  0.42660993  0.16211162  0.45444499     0.09000
H207        H  0.34341034  0.06936859  0.04210426     0.07000
Br208      Br  0.32643151  0.04959378  0.45050806    -0.03600
C209        C  0.32686567  0.01628530  0.32623233    -0.10200
C210        C  0.35538323  0.03336620  0.35079871     0.06000
C211        C  0.36377207  0.01582346  0.37978123    -0.04000
C212        C  0.34743100  0.48247248  0.37823853    -0.08400
C213        C  0.31984138  0.46517081  0.35230140     0.05100
C214        C  0.30850029  0.48245444  0.32836746    -0.03500
Br215      Br  0.26807323  0.46075632  0.29882622    -0.03200
H216        H  0.31903758  0.02928197  0.30542914     0.09000
H217        H  0.35566864  0.46980255  0.39891723     0.07000
Br218      Br  0.39410106  0.03555847  0.42718069    -0.03600
C219        C  0.13761262  0.25128608  0.00388877    -0.09200
C220        C  0.10865812  0.23631878  0.02900561     0.06000
C221        C  0.07940944  0.22143562  0.00548193    -0.04000
C222        C  0.07953290  0.21648556  0.45885395    -0.08400
C223        C  0.10846800  0.22635534  0.43580776     0.05100
C224        C  0.13774600  0.24597116  0.45764044    -0.03500
Br225      Br  0.17847673  0.26285776  0.42684783    -0.03200
H226        H  0.16032316  0.26344421  0.02126914     0.09000
H227        H  0.05694952  0.20242795  0.44154800     0.07000
Br228      Br  0.03851927  0.20445028  0.03455164    -0.03600
C229        C  0.01797800  0.13752527  0.34498481    -0.10200
C230        C  0.03575912  0.16918083  0.32843847     0.06000
C231        C  0.01875864  0.18390495  0.31465440    -0.04000
C232        C  0.48495090  0.16645913  0.31551091    -0.08400
C233        C  0.46675211  0.13406157  0.33083723     0.05100
C234        C  0.48446567  0.12042722  0.34749764    -0.03500
Br235      Br  0.46655451  0.08015109  0.37880799    -0.03200
H236        H  0.03035099  0.12628367  0.35863920     0.09000
H237        H  0.47339942  0.17956461  0.30661942     0.07000
Br238      Br  0.03960003  0.22799774  0.29633820    -0.03600
C239        C  0.36718161  0.48722107  0.17401245    -0.10200
C240        C  0.33323068  0.47028883  0.17537838     0.06000
C241        C  0.31842807  0.48869320  0.17836736    -0.04000
C242        C  0.33696920  0.02224305  0.17634489    -0.08400
C243        C  0.37092853  0.03938838  0.17425229     0.05100
C244        C  0.38595031  0.02089838  0.17376315    -0.03500
Br245      Br  0.43130469  0.03718868  0.16954224    -0.03200
H246        H  0.37985980  0.47468272  0.17017435     0.09000
H247        H  0.32413863  0.03483501  0.17442104     0.07000
Br248      Br  0.27326351  0.47147152  0.18497668    -0.03600
C249        C  0.30063509  0.42964300  0.48090926    -0.10200
C250        C  0.27304515  0.40345955  0.46252082     0.06000
C251        C  0.24847211  0.38131583  0.49185818    -0.04000
C252        C  0.25305642  0.38319273  0.03864580    -0.08400
C253        C  0.28237194  0.40714592  0.05631145     0.05100
C254        C  0.30544597  0.43136833  0.02749799    -0.03500
Br255      Br  0.34596556  0.46495658  0.04955710    -0.03200
H256        H  0.31983975  0.44657740  0.45885024     0.09000
H257        H  0.23514616  0.36451615  0.06076057     0.07000
Br258      Br  0.20999476  0.34553001  0.46883630    -0.03600
C259        C  0.38174055  0.36532174  0.15335374    -0.10200
C260        C  0.36660754  0.33294466  0.16754611     0.06000
C261        C  0.33272711  0.31645765  0.17523919    -0.04000
C262        C  0.31659940  0.33338167  0.17537635    -0.08400
C263        C  0.33213139  0.36612334  0.16315114     0.05100
C264        C  0.36487008  0.38136585  0.14928426    -0.03500
Br265      Br  0.38750691  0.42251857  0.11882463    -0.03200
H266        H  0.40647261  0.37773158  0.14163225     0.09000
H267        H  0.29097926  0.31953450  0.18075872     0.07000
Br268      Br  0.30457869  0.27034188  0.17759535    -0.03600
C269        C  0.02645841  0.38469109  0.14239055    -0.10200
C270        C  0.04252604  0.36962698  0.15853835     0.06000
C271        C  0.02367058  0.33750543  0.17433776    -0.04000
C272        C  0.48983755  0.32161187  0.17461455    -0.08400
C273        C  0.47388038  0.33711863  0.15938498     0.05100
C274        C  0.49298453  0.36919266  0.14272297    -0.03500
Br275      Br  0.47598923  0.39314737  0.11503287    -0.03200
H276        H  0.04020386  0.40891435  0.12859471     0.09000
H277        H  0.47589732  0.29714986  0.18747101     0.07000
Br278      Br  0.04255768  0.31470720  0.19850417    -0.03600
C279        C  0.12269037  0.38259611  0.47264338    -0.10200
C280        C  0.09574740  0.38223565  0.45501600     0.06000
C281        C  0.07545453  0.38678800  0.48560293    -0.04000
C282        C  0.08188057  0.39063313  0.03123748    -0.08400
C283        C  0.10876698  0.39134489  0.04840393     0.05100
C284        C  0.12922035  0.38713395  0.01883353    -0.03500
Br285      Br  0.16664666  0.38814456  0.04071984    -0.03200
H286        H  0.13844302  0.37904467  0.45035298     0.09000
H287        H  0.06664778  0.39484475  0.05376044     0.07000
Br288      Br  0.03927500  0.39045118  0.46901400    -0.03600
C289        C  0.17042341  0.17928698  0.32553582    -0.10200
C290        C  0.13692262  0.16397981  0.33161298     0.06000
C291        C  0.12042263  0.13083018  0.34449213    -0.04000
C292        C  0.13611505  0.11336311  0.34300985    -0.08400
C293        C  0.16923787  0.12833860  0.33384692     0.05100
C294        C  0.18666529  0.16250714  0.32911855    -0.03500
Br295      Br  0.23264019  0.18935413  0.33451466    -0.03200
H296        H  0.18478233  0.20517417  0.32212755     0.09000
H297        H  0.12259313  0.08827812  0.35304896     0.07000
Br298      Br  0.07827131  0.10822850  0.37210014    -0.03600
C299        C  0.13491486  0.00445826  0.35919663    -0.10200
C300        C  0.16517631  0.02033131  0.33738533     0.06000
C301        C  0.17624777  0.00111138  0.31776677    -0.04000
C302        C  0.15705820  0.46719172  0.32071617    -0.08400
C303        C  0.12640331  0.45164278  0.34186197     0.05100
C304        C  0.11576487  0.47113417  0.36148801    -0.03500
Br305      Br  0.07519697  0.45404090  0.39235668    -0.03200
H306        H  0.12596823  0.01836158  0.37543409     0.09000
H307        H  0.16567272  0.45283957  0.30500196     0.07000
Br308      Br  0.21612660  0.01987364  0.28447118    -0.03600
C309        C  0.41898557  0.29218179  0.47822916    -0.10200
C310        C  0.38821093  0.27216718  0.46115659     0.06000
C311        C  0.36279697  0.25243728  0.49138342    -0.04000
C312        C  0.36776840  0.25506645  0.03795681    -0.08400
C313        C  0.39778045  0.27755927  0.05552407     0.05100
C314        C  0.42392806  0.29512587  0.02510557    -0.03500
Br315      Br  0.46579764  0.32658543  0.04486338    -0.03200
H316        H  0.43864065  0.30768959  0.45527849     0.09000
H317        H  0.34735144  0.24158360  0.06076395     0.07000
Br318      Br  0.32011560  0.22383551  0.47088788    -0.03600
C319        C  0.46357740  0.29884684  0.32980878    -0.10200
C320        C  0.44960612  0.31743535  0.33828218     0.06000
C321        C  0.47038220  0.35100689  0.34382745    -0.04000
C322        C  0.00350412  0.36493838  0.33849493    -0.08400
C323        C  0.01804482  0.34664635  0.33061413     0.05100
C324        C  0.99711295  0.31262857  0.32851388    -0.03500
Br325      Br  0.01120761  0.28234049  0.33124128    -0.03200
H326        H  0.44835833  0.27299838  0.32696015     0.09000
H327        H  0.01799985  0.39025980  0.34584643     0.07000
Br328      Br  0.45722350  0.37954484  0.36738294    -0.03600
C329        C  0.35687176  0.34490095  0.32159572    -0.10200
C330        C  0.34459503  0.31715505  0.34933629     0.06000
C331        C  0.31569871  0.30756565  0.37355526    -0.04000
C332        C  0.30377850  0.32819987  0.37641737    -0.08400
C333        C  0.31899910  0.35844885  0.35429572     0.05100
C334        C  0.34416400  0.36505895  0.32308342    -0.03500
Br335      Br  0.36035487  0.39787183  0.27703054    -0.03200
H336        H  0.37578020  0.35092051  0.29703349     0.09000
H337        H  0.28197038  0.32026171  0.39620164     0.07000
Br338      Br  0.29077204  0.26659141  0.40366203    -0.03600
C339        C  0.13077003  0.49250898  0.16530942    -0.10200
C340        C  0.14836186  0.47691310  0.16449078     0.06000
C341        C  0.18237690  0.49673320  0.16275983    -0.04000
C342        C  0.19780330  0.03044709  0.16488988    -0.08400
C343        C  0.18011662  0.04593621  0.16473773     0.05100
C344        C  0.14593575  0.02610659  0.16575372    -0.03500
Br345      Br  0.11580664  0.04026811  0.15736421    -0.03200
H346        H  0.10495019  0.47898106  0.16195993     0.09000
H347        H  0.22380969  0.04448388  0.16402715     0.07000
Br348      Br  0.21037654  0.48084230  0.14956691    -0.03600
C349        C  0.19447484  0.06741663  0.46700994    -0.10200
C350        C  0.22077419  0.09005843  0.44062952     0.06000
C351        C  0.24861925  0.11337443  0.46250710    -0.04000
C352        C  0.24838041  0.11664884  0.00993411    -0.08400
C353        C  0.22054487  0.09638448  0.03582947     0.05100
C354        C  0.19413103  0.07055064  0.01429509    -0.03500
Br355      Br  0.15560533  0.04086233  0.04689543    -0.03200
H356        H  0.17282613  0.04936786  0.45054539     0.09000
H357        H  0.26896816  0.13651727  0.02595983     0.07000
Br358      Br  0.28598841  0.14326477  0.42792961    -0.03600
C359        C  0.15331654  0.13984537  0.16837486    -0.10200
C360        C  0.18115858  0.15063268  0.14081534     0.06000
C361        C  0.19115271  0.17869901  0.11434419    -0.04000
C362        C  0.17221512  0.19274628  0.11253264    -0.08400
C363        C  0.14263513  0.17995066  0.13642889     0.05100
C364        C  0.13474505  0.15440192  0.16734489    -0.03500
Br365      Br  0.10208845  0.13979644  0.21392852    -0.03200
H366        H  0.14560101  0.12055849  0.19212137     0.09000
H367        H  0.18093988  0.21419380  0.09185840     0.07000
Br368      Br  0.23039970  0.19940180  0.07893899    -0.03600
O369        O  0.12321140  0.29118434  0.68613430    -0.82900
C370        C  0.22516824  0.36501742  0.81168414     0.96500
O371        O  0.21977316  0.34252735  0.78522309    -0.72000
O372        O  0.16632069  0.28694092  0.79400406    -0.75600
Al373      Al  0.18822238  0.31511358  0.74481225     1.49000
C374        C  0.13638554  0.26746447  0.79579182     0.91700
O375        O  0.11587050  0.32690203  0.79811067    -0.81800
O376        O  0.16963818  0.38364710  0.70264424    -0.75400
Al377      Al  0.12292760  0.31108528  0.74296662     1.90100
O378        O  0.15368088  0.37786716  0.79216379    -0.74400
O379        O  0.22508833  0.38739738  0.72010517    -0.74300
O380        O  0.20782471  0.37738542  0.81068327    -0.79900
O381        O  0.21240237  0.34005052  0.69452314    -0.78100
O382        O  0.16581313  0.33451272  0.74817759    -1.14300
O383        O  0.16195687  0.28336206  0.70417016    -0.73500
C384        C  0.13780093  0.27610463  0.68093261     0.97200
C385        C  0.12676708  0.35609329  0.80781967     0.93600
Al386      Al  0.18688184  0.37759222  0.75568683     1.55600
O387        O  0.11731850  0.27399257  0.77639040    -0.78100
C388        C  0.23146020  0.36997498  0.69560611     0.97800
C389        C  0.14022504  0.37074474  0.69371500     0.92700
O390        O  0.11976477  0.34311927  0.70884148    -0.83400
C391        C  0.19876188  0.13166678  0.63707826     0.85400
C392        C  0.20054987  0.12233244  0.58781142    -0.54800
C393        C  0.21667636  0.10651160  0.58162373     0.08300
C394        C  0.22848138  0.09975496  0.62597630     0.19300
C395        C  0.18384990  0.09960576  0.66393200    -0.55500
C396        C  0.19738645  0.08150949  0.65547724     0.08400
C397        C  0.23361516  0.14979900  0.65296946    -0.55100
C398        C  0.24918399  0.13300864  0.64889028     0.09000
H399        H  0.18991170  0.12790378  0.55981205     0.13500
H400        H  0.24154248  0.08691051  0.62017205    -0.00700
H401        H  0.16468960  0.09143001  0.68820927     0.13800
H402        H  0.24370675  0.17244376  0.67083094     0.13600
C403        C  0.36283976  0.29927957  0.85566008     0.85400
C404        C  0.36706363  0.29457851  0.90600812    -0.54800
C405        C  0.38190999  0.27780543  0.91416025     0.08300
C406        C  0.39322947  0.26863767  0.87095877     0.19300
C407        C  0.39728372  0.31578188  0.83552297    -0.55500
C408        C  0.41395795  0.30104800  0.84548716     0.08400
C409        C  0.34643000  0.26552449  0.83573523    -0.55100
C410        C  0.36244445  0.24953070  0.84266364     0.09000
H411        H  0.35913742  0.30400030  0.93326654     0.13500
H412        H  0.40571432  0.25540290  0.87806211    -0.00700
H413        H  0.40849837  0.33772460  0.81577244     0.13800
H414        H  0.32549313  0.25630483  0.81442397     0.13600
C415        C  0.18599782  0.10898278  0.83866603     0.85400
C416        C  0.21493457  0.12076128  0.80743700    -0.54800
C417        C  0.23362400  0.10783145  0.81481495     0.08300
C418        C  0.21854389  0.07992808  0.85067737     0.19300
C419        C  0.16670352  0.07261387  0.82890159    -0.55500
C420        C  0.18316898  0.05681633  0.83559187     0.08400
C421        C  0.19818960  0.11120400  0.88668970    -0.55100
C422        C  0.21443715  0.09564349  0.89364018     0.09000
H423        H  0.22047918  0.13873384  0.78129449     0.13500
H424        H  0.23254359  0.06809726  0.85665296    -0.00700
H425        H  0.14179108  0.06000034  0.81873960     0.13800
H426        H  0.19249863  0.12249305  0.91404202     0.13600
C427        C  0.05426027  0.36311417  0.83961091     0.85400
C428        C  0.05825140  0.36040226  0.89012132    -0.54800
C429        C  0.08892782  0.37695494  0.90502189     0.08300
C430        C  0.11423885  0.39245000  0.86571046     0.19300
C431        C  0.07433345  0.39967152  0.82796400    -0.55500
C432        C  0.10539620  0.41535686  0.84248022     0.08400
C433        C  0.07383165  0.35027315  0.81740074    -0.55100
C434        C  0.10501461  0.36477128  0.83109502     0.09000
H435        H  0.03773949  0.34626392  0.91254417     0.13500
H436        H  0.13956931  0.40481567  0.87679117    -0.00700
H437        H  0.06486514  0.41243470  0.80999681     0.13800
H438        H  0.06464901  0.33257989  0.79082358     0.13600
C439        C  0.13102828  0.44066667  0.65681354     0.85400
C440        C  0.13236813  0.43374854  0.60650812    -0.54800
C441        C  0.11730242  0.40192432  0.59610135     0.08300
C442        C  0.10180030  0.37919555  0.63733366     0.19300
C443        C  0.09483579  0.42115505  0.66990187    -0.55500
C444        C  0.07905412  0.38929232  0.65865621     0.08400
C445        C  0.14424331  0.42251337  0.68152441    -0.55100
C446        C  0.12977788  0.39068928  0.67094017     0.09000
H447        H  0.14249820  0.45257527  0.58067936     0.13500
H448        H  0.08983695  0.35339150  0.62836430    -0.00700
H449        H  0.08198632  0.43112247  0.68659106     0.13800
H450        H  0.16292714  0.43366144  0.70662360     0.13600
C451        C  0.38552125  0.31579310  0.66125615     0.85400
C452        C  0.37441072  0.28609798  0.69065438    -0.54800
C453        C  0.38785474  0.26812084  0.68031408     0.08300
C454        C  0.41517395  0.28446433  0.64352842     0.19300
C455        C  0.42171318  0.33520931  0.67044967    -0.55500
C456        C  0.43793593  0.31978414  0.65976801     0.08400
C457        C  0.38282224  0.30466034  0.61228757    -0.55100
C458        C  0.39836735  0.28872909  0.60247106     0.09000
H459        H  0.35731743  0.27984179  0.71844052     0.13500
H460        H  0.42737741  0.27100791  0.63547883    -0.00700
H461        H  0.43351988  0.35917185  0.68456876     0.13800
H462        H  0.36982809  0.30948020  0.58688668     0.13600
C463        C  0.31314762  0.38319782  0.65855986     0.85400
C464        C  0.30738387  0.38708862  0.60876276    -0.54800
C465        C  0.29133107  0.40279806  0.60204964     0.08300
C466        C  0.28255918  0.41379678  0.64551415     0.19300
C467        C  0.32978784  0.41710523  0.67828643    -0.55500
C468        C  0.31516149  0.43435424  0.66985308     0.08400
C469        C  0.27965036  0.36704746  0.68114267    -0.55100
C470        C  0.26350510  0.38280221  0.67432749     0.09000
H471        H  0.31495845  0.37772383  0.58101367     0.13500
H472        H  0.26879767  0.42529095  0.63734533    -0.00700
H473        H  0.35204320  0.42673792  0.69611579     0.13800
H474        H  0.26968269  0.34596825  0.70292641     0.13600
C475        C  0.12142192  0.18483755  0.83537821     0.85400
C476        C  0.12080246  0.19384352  0.88474549    -0.54800
C477        C  0.10760750  0.21234352  0.89159233     0.08300
C478        C  0.09449501  0.21915129  0.84912083     0.19300
C479        C  0.08652768  0.16879338  0.81974432    -0.55500
C480        C  0.07164186  0.18571301  0.82867702     0.08400
C481        C  0.13803286  0.21752732  0.80964175    -0.55100
C482        C  0.12396860  0.23550297  0.81713550     0.09000
H483        H  0.13116456  0.18720455  0.91194436     0.13500
H484        H  0.08373292  0.23394332  0.85665741    -0.00700
H485        H  0.07395302  0.14519931  0.80449794     0.13800
H486        H  0.15852461  0.22563530  0.78680156     0.13600
C487        C  0.43027024  0.11843614  0.83941943     0.85400
C488        C  0.42457251  0.12290509  0.88891564    -0.54800
C489        C  0.39326323  0.11109548  0.90182987     0.08300
C490        C  0.36954679  0.09459575  0.86262442     0.19300
C491        C  0.40873821  0.08198243  0.83176794    -0.55500
C492        C  0.37723550  0.06908929  0.84525890     0.08400
C493        C  0.41337119  0.13265145  0.81287415    -0.55100
C494        C  0.38200295  0.12071445  0.82504143     0.09000
H495        H  0.44436057  0.13415196  0.91236793     0.13500
H496        H  0.34395745  0.08497951  0.87158694    -0.00700
H497        H  0.41769077  0.06717486  0.81863823     0.13800
H498        H  0.42453184  0.14998899  0.78537721     0.13600
C499        C  0.30312124  0.37855031  0.86054881     0.85400
C500        C  0.27215725  0.36325019  0.83476052    -0.54800
C501        C  0.25405357  0.37710646  0.84004294     0.08300
C502        C  0.26935831  0.40643246  0.87210105     0.19300
C503        C  0.32112356  0.41447645  0.84683744    -0.55500
C504        C  0.30359348  0.42923075  0.85250710     0.08400
C505        C  0.29311613  0.37910896  0.90978265    -0.55100
C506        C  0.27577034  0.39369108  0.91619888     0.09000
H507        H  0.26552369  0.34282582  0.81289096     0.13500
H508        H  0.25500270  0.41801348  0.87753373    -0.00700
H509        H  0.34666675  0.42844520  0.83958694     0.13800
H510        H  0.30137838  0.37096351  0.93794015     0.13600
C511        C  0.38730623  0.07510408  0.66122352     0.85400
C512        C  0.38323611  0.07780588  0.61033092    -0.54800
C513        C  0.39374622  0.10819688  0.59423616     0.08300
C514        C  0.40903651  0.13395765  0.63131804     0.19300
C515        C  0.42316907  0.09836920  0.66957352    -0.55500
C516        C  0.43503959  0.12860632  0.65195168     0.08400
C517        C  0.37182256  0.09214585  0.68386903    -0.55100
C518        C  0.38254723  0.12232545  0.66796731     0.09000
H519        H  0.37258168  0.05676673  0.58882906     0.13500
H520        H  0.41757829  0.15896507  0.62055151    -0.00700
H521        H  0.43868755  0.09249183  0.68735730     0.13800
H522        H  0.35417983  0.08154943  0.71143696     0.13600
C523        C  0.12372139  0.19742590  0.63076872     0.85400
C524        C  0.13962477  0.22871404  0.65677984    -0.54800
C525        C  0.12626611  0.24740128  0.65180515     0.08300
C526        C  0.09743399  0.23276992  0.61947344     0.19300
C527        C  0.08788862  0.18046962  0.64451626    -0.55500
C528        C  0.07390754  0.19871500  0.63894311     0.08400
C529        C  0.12354122  0.20746284  0.58171942    -0.55100
C530        C  0.11029720  0.22605054  0.57546541     0.09000
H531        H  0.15961172  0.23489333  0.67897627     0.13500
H532        H  0.08683432  0.24790727  0.61372231    -0.00700
H533        H  0.07344636  0.15504546  0.65223141     0.13800
H534        H  0.13260815  0.19984673  0.55357692     0.13600
O535        O  0.38606292  0.21891846  0.70341003    -0.82900
C536        C  0.26590892  0.12415891  0.79186803     0.96500
O537        O  0.27477957  0.15105612  0.77338718    -0.72000
O538        O  0.32567878  0.20205967  0.80487392    -0.75600
Al539      Al  0.31231151  0.18553652  0.74614557     1.49000
C540        C  0.35460793  0.22124946  0.81482193     0.91700
O541        O  0.37501903  0.16344497  0.80339705    -0.81800
O542        O  0.33908690  0.12796418  0.68678511    -0.75400
Al543      Al  0.37723866  0.18909564  0.75325867     1.90100
O544        O  0.34074207  0.11560132  0.77684155    -0.74400
O545        O  0.28116717  0.12086451  0.69657946    -0.74300
O546        O  0.28371905  0.11234175  0.78890919    -0.79900
O547        O  0.29604814  0.17148152  0.68717414    -0.78100
O548        O  0.33432801  0.16586885  0.74590304    -1.14300
O549        O  0.34515633  0.22443461  0.71926215    -0.73500
C550        C  0.37262199  0.23526671  0.70126900     0.97200
C551        C  0.36379805  0.13346642  0.80242547     0.93600
Al552      Al  0.31329326  0.12300940  0.73792956     1.55600
O553        O  0.37696876  0.21929443  0.79566467    -0.78100
C554        C  0.27777426  0.14226250  0.67729299     0.97800
C555        C  0.36914544  0.14043323  0.68778103     0.92700
O556        O  0.38638553  0.16376101  0.71323122    -0.83400
C557        C  0.48786964  0.18008444  0.66281542    -0.10200
C558        C  0.47013478  0.14951484  0.64350029     0.06000
C559        C  0.48657561  0.13749827  0.61864595    -0.04000
C560        C  0.02001320  0.15361151  0.61891550    -0.08400
C561        C  0.03818037  0.18337136  0.64032708     0.05100
C562        C  0.02175986  0.19753882  0.66001457    -0.03500
Br563      Br  0.04381078  0.24023032  0.68311430    -0.03200
H564        H  0.47547205  0.19017186  0.68053376     0.09000
H565        H  0.03191971  0.14339884  0.60023646     0.07000
Br566      Br  0.46488809  0.10031236  0.58091338    -0.03600
C567        C  0.40870525  0.14160204  0.97335158    -0.10200
C568        C  0.38566171  0.11415552  0.95012530     0.06000
C569        C  0.36094548  0.08859490  0.97585215    -0.04000
C570        C  0.36228105  0.08913027  0.52318263    -0.08400
C571        C  0.38912750  0.11373938  0.54579515     0.05100
C572        C  0.41181390  0.14082327  0.52015049    -0.03500
Br573      Br  0.45127244  0.17546576  0.54306807    -0.03200
H574        H  0.42695042  0.16233184  0.95437914     0.09000
H575        H  0.34334658  0.06895158  0.54216325     0.07000
Br576      Br  0.32658014  0.04992044  0.95050711    -0.03600
C577        C  0.32694803  0.01642168  0.82622982    -0.10200
C578        C  0.35545044  0.03351108  0.85081834     0.06000
C579        C  0.36387595  0.01597324  0.87975490    -0.04000
C580        C  0.34732457  0.48242462  0.87832078    -0.08400
C581        C  0.31975201  0.46509370  0.85236938     0.05100
C582        C  0.30845254  0.48235746  0.82828581    -0.03500
Br583      Br  0.26802545  0.46061985  0.79873995    -0.03200
H584        H  0.31910812  0.02941022  0.80543788     0.09000
H585        H  0.35553146  0.46977270  0.89911227     0.07000
Br586      Br  0.39424141  0.03573043  0.92711728    -0.03600
C587        C  0.13758773  0.25134946  0.50390322    -0.09200
C588        C  0.10860715  0.23634746  0.52895576     0.06000
C589        C  0.07938366  0.22145705  0.50537308    -0.04000
C590        C  0.07950117  0.21645016  0.95895788    -0.08400
C591        C  0.10840767  0.22631680  0.93583599     0.05100
C592        C  0.13771284  0.24590956  0.95761508    -0.03500
Br593      Br  0.17840035  0.26274565  0.92671322    -0.03200
H594        H  0.16027745  0.26351931  0.52133558     0.09000
H595        H  0.05689692  0.20239611  0.94169986     0.07000
Br596      Br  0.03845689  0.20443143  0.53436537    -0.03600
C597        C  0.01798531  0.13759140  0.84480123    -0.10200
C598        C  0.03574938  0.16927243  0.82835823     0.06000
C599        C  0.01874315  0.18401686  0.81470556    -0.04000
C600        C  0.48500604  0.16655566  0.81538799    -0.08400
C601        C  0.46679445  0.13412230  0.83054774     0.05100
C602        C  0.48449096  0.12041571  0.84701879    -0.03500
Br603      Br  0.46658333  0.08005614  0.87811814    -0.03200
H604        H  0.03036697  0.12634177  0.85840188     0.09000
H605        H  0.47345466  0.17969112  0.80664837     0.07000
Br606      Br  0.03957024  0.22814908  0.79660276    -0.03600
C607        C  0.36716887  0.48734341  0.67361808    -0.10200
C608        C  0.33322368  0.47039236  0.67525267     0.06000
C609        C  0.31839592  0.48877857  0.67816401    -0.04000
C610        C  0.33700613  0.02222138  0.67685299    -0.08400
C611        C  0.37095456  0.03936998  0.67459063     0.05100
C612        C  0.38597634  0.02088159  0.67371133    -0.03500
Br613      Br  0.43133293  0.03723130  0.66922538    -0.03200
H614        H  0.37983804  0.47481053  0.66973893     0.09000
H615        H  0.32414607  0.03481244  0.67514423     0.07000
Br616      Br  0.27322564  0.47151831  0.68491950    -0.03600
C617        C  0.30034721  0.42946121  0.98093522    -0.10200
C618        C  0.27280406  0.40324254  0.96253495     0.06000
C619        C  0.24824861  0.38105263  0.99185735    -0.04000
C620        C  0.25328597  0.38345105  0.53864630    -0.08400
C621        C  0.28262665  0.40735782  0.55630588     0.05100
C622        C  0.30572752  0.43155372  0.52748359    -0.03500
Br623      Br  0.34624220  0.46514577  0.54955984    -0.03200
H624        H  0.31956064  0.44644475  0.95885401     0.09000
H625        H  0.23535682  0.36480406  0.56076050     0.07000
Br626      Br  0.20981140  0.34522307  0.96882015    -0.03600
C627        C  0.38206358  0.36563606  0.65365103    -0.10200
C628        C  0.36688355  0.33319032  0.66753975     0.06000
C629        C  0.33297511  0.31664965  0.67489439    -0.04000
C630        C  0.31682653  0.33354886  0.67507707    -0.08400
C631        C  0.33239196  0.36635495  0.66320528     0.05100
C632        C  0.36518407  0.38167659  0.64958593    -0.03500
Br633      Br  0.38787248  0.42291284  0.61936149    -0.03200
H634        H  0.40683769  0.37811034  0.64211631     0.09000
H635        H  0.29117742  0.31965033  0.68017457     0.07000
Br636      Br  0.30488297  0.27051855  0.67667059    -0.03600
C637        C  0.02678151  0.38487777  0.64263049    -0.10200
C638        C  0.04286285  0.36982141  0.65875154     0.06000
C639        C  0.02401046  0.33768398  0.67449140    -0.04000
C640        C  0.49003249  0.32171821  0.67451261    -0.08400
C641        C  0.47410415  0.33724115  0.65923313     0.05100
C642        C  0.49324659  0.36932269  0.64259329    -0.03500
Br643      Br  0.47630839  0.39332454  0.61487899    -0.03200
H644        H  0.04052525  0.40912005  0.62888804     0.09000
H645        H  0.47606856  0.29725608  0.68736052     0.07000
Br646      Br  0.04291496  0.31487993  0.69855335    -0.03600
C647        C  0.12248606  0.38239998  0.97234956    -0.10200
C648        C  0.09555889  0.38204280  0.95466843     0.06000
C649        C  0.07517943  0.38647305  0.98524482    -0.04000
C650        C  0.08227631  0.39110745  0.53154283    -0.08400
C651        C  0.10915434  0.39178676  0.54865648     0.05100
C652        C  0.12950946  0.38742434  0.51909407    -0.03500
Br653      Br  0.16687384  0.38829088  0.54094661    -0.03200
H654        H  0.13831189  0.37895149  0.95006939     0.09000
H655        H  0.06710293  0.39539555  0.55407945     0.07000
Br656      Br  0.03909984  0.39027657  0.96853791    -0.03600
C657        C  0.17038602  0.17936497  0.82604648    -0.10200
C658        C  0.13684373  0.16399333  0.83161669     0.06000
C659        C  0.12028128  0.13078371  0.84416785    -0.04000
C660        C  0.13599722  0.11334502  0.84272841    -0.08400
C661        C  0.16917937  0.12840131  0.83402913     0.05100
C662        C  0.18661666  0.16258617  0.82971066    -0.03500
Br663      Br  0.23254550  0.18937361  0.83571563    -0.03200
H664        H  0.18474527  0.20527303  0.82295877     0.09000
H665        H  0.12242433  0.08821398  0.85250638     0.07000
Br666      Br  0.07801971  0.10804135  0.87141992    -0.03600
C667        C  0.13517516  0.00467271  0.86005156    -0.10200
C668        C  0.16529666  0.02050467  0.83785105     0.06000
C669        C  0.17629404  0.00126262  0.81811680    -0.04000
C670        C  0.15705635  0.46711987  0.82029517    -0.08400
C671        C  0.12637585  0.45152975  0.84137812     0.05100
C672        C  0.11570323  0.47098909  0.86100797    -0.03500
Br673      Br  0.07507177  0.45383437  0.89171308    -0.03200
H674        H  0.12631787  0.01861281  0.87641752     0.09000
H675        H  0.16569759  0.45279513  0.80456416     0.07000
Br676      Br  0.21606904  0.02001057  0.78457172    -0.03600
C677        C  0.41905152  0.29216136  0.97827448    -0.10200
C678        C  0.38829047  0.27220496  0.96110293     0.06000
C679        C  0.36282985  0.25247963  0.99126748    -0.04000
C680        C  0.36780202  0.25508927  0.53805958    -0.08400
C681        C  0.39783112  0.27764719  0.55552157     0.05100
C682        C  0.42392107  0.29522425  0.52503077    -0.03500
Br683      Br  0.46576250  0.32685342  0.54464071    -0.03200
H684        H  0.43875103  0.30766302  0.95538222     0.09000
H685        H  0.34742613  0.24160452  0.56093188     0.07000
Br686      Br  0.32015756  0.22398617  0.97068075    -0.03600
C687        C  0.46352466  0.29864062  0.82958424    -0.10200
C688        C  0.44957683  0.31726381  0.83796331     0.06000
C689        C  0.47037581  0.35083985  0.84340593    -0.04000
C690        C  0.00350688  0.36478796  0.83793496    -0.08400
C691        C  0.01804288  0.34649556  0.83002117     0.05100
C692        C  0.99709638  0.31247588  0.82792019    -0.03500
Br693      Br  0.01116507  0.28217516  0.83060876    -0.03200
H694        H  0.44828603  0.27278700  0.82681493     0.09000
H695        H  0.01801162  0.39010974  0.84527804     0.07000
Br696      Br  0.45726148  0.37945784  0.86677884    -0.03600
C697        C  0.35697345  0.34498688  0.82169911    -0.10200
C698        C  0.34466779  0.31718447  0.84932328     0.06000
C699        C  0.31575337  0.30755307  0.87352229    -0.04000
C700        C  0.30381571  0.32816768  0.87644380    -0.08400
C701        C  0.31903685  0.35844396  0.85440715     0.05100
C702        C  0.34423979  0.36511993  0.82322801    -0.03500
Br703      Br  0.36045357  0.39799478  0.77725735    -0.03200
H704        H  0.37594145  0.35108776  0.79718766     0.09000
H705        H  0.28198605  0.32018744  0.89620074     0.07000
Br706      Br  0.29083029  0.26655407  0.90355492    -0.03600
C707        C  0.13130396  0.49278561  0.66744750    -0.10200
C708        C  0.14883891  0.47715872  0.66510653     0.06000
C709        C  0.18282752  0.49694667  0.66231596    -0.04000
C710        C  0.19745674  0.03037929  0.66558602    -0.08400
C711        C  0.17975946  0.04582101  0.66447885     0.05100
C712        C  0.14558834  0.02600784  0.66453293    -0.03500
Br713      Br  0.11567845  0.04027796  0.65469956    -0.03200
H714        H  0.10549404  0.47936695  0.66529393     0.09000
H715        H  0.22346010  0.04446668  0.66533092     0.07000
Br716      Br  0.21052339  0.48089141  0.64782025    -0.03600
C717        C  0.19444674  0.06759878  0.96718391    -0.10200
C718        C  0.22075938  0.09022268  0.94078510     0.06000
C719        C  0.24861416  0.11354309  0.96262739    -0.04000
C720        C  0.24834828  0.11649979  0.50981806    -0.08400
C721        C  0.22050041  0.09623104  0.53569673     0.05100
C722        C  0.19413519  0.07036175  0.51411855    -0.03500
Br723      Br  0.15563484  0.04054418  0.54658929    -0.03200
H724        H  0.17277583  0.04957536  0.95073639     0.09000
H725        H  0.26892546  0.13637012  0.52585705     0.07000
Br726      Br  0.28591054  0.14352702  0.92799996    -0.03600
C727        C  0.15320210  0.13976786  0.66820301    -0.10200
C728        C  0.18102527  0.15052779  0.64060159     0.06000
C729        C  0.19104418  0.17860492  0.61415887    -0.04000
C730        C  0.17211199  0.19265765  0.61233424    -0.08400
C731        C  0.14253530  0.17987227  0.63623973     0.05100
C732        C  0.13463748  0.15432782  0.66716365    -0.03500
Br733      Br  0.10199586  0.13972677  0.71377749    -0.03200
H734        H  0.14552951  0.12057340  0.69200235     0.09000
H735        H  0.18084530  0.21410900  0.59167454     0.07000
Br736      Br  0.23036096  0.19935735  0.57891978    -0.03600
O737        O  0.12317702  0.79112457  0.18614527    -0.82900
C738        C  0.22515743  0.86495738  0.31168667     0.96500
O739        O  0.21978224  0.84248880  0.28519145    -0.72000
O740        O  0.16632460  0.78689264  0.29394974    -0.75600
Al741      Al  0.18821846  0.81507842  0.24476990     1.49000
C742        C  0.13638733  0.76742443  0.29576051     0.91700
O743        O  0.11585660  0.82685909  0.29812176    -0.81800
O744        O  0.16961482  0.88362040  0.20267448    -0.75400
Al745      Al  0.12291327  0.81104248  0.24297328     1.90100
O746        O  0.15366609  0.87782235  0.29220122    -0.74400
O747        O  0.22508227  0.88736217  0.22010490    -0.74300
O748        O  0.20780917  0.87732081  0.31069064    -0.79900
O749        O  0.21238706  0.84002428  0.19447894    -0.78100
O750        O  0.16580126  0.83447164  0.24816774    -1.14300
O751        O  0.16194754  0.78332912  0.20412893    -0.73500
C752        C  0.13776825  0.77604710  0.18093332     0.97200
C753        C  0.12675124  0.85604577  0.30785521     0.93600
Al754      Al  0.18686801  0.87754905  0.25570100     1.55600
O755        O  0.11731646  0.77396167  0.27639529    -0.78100
C756        C  0.23145587  0.86994478  0.19559177     0.97800
C757        C  0.14020077  0.87070323  0.19373060     0.92700
O758        O  0.11974683  0.84307164  0.20884609    -0.83400
C759        C  0.19872873  0.63161376  0.13717201     0.85400
C760        C  0.20051823  0.62231468  0.08788720    -0.54800
C761        C  0.21664069  0.60649558  0.08165718     0.08300
C762        C  0.22843943  0.59970095  0.12598124     0.19300
C763        C  0.18379756  0.59952392  0.16395886    -0.55500
C764        C  0.19733465  0.58143245  0.15545583     0.08400
C765        C  0.23358093  0.64972575  0.15307391    -0.55100
C766        C  0.24914551  0.63293390  0.14894081     0.09000
H767        H  0.18987434  0.62789754  0.05990718     0.13500
H768        H  0.24149571  0.58685472  0.12014290    -0.00700
H769        H  0.16456911  0.59129386  0.18816185     0.13800
H770        H  0.24368199  0.67236392  0.17095491     0.13600
C771        C  0.36286764  0.79926243  0.35562292     0.85400
C772        C  0.36711672  0.79454052  0.40595305    -0.54800
C773        C  0.38196394  0.77776054  0.41404157     0.08300
C774        C  0.39327186  0.76862058  0.37081234     0.19300
C775        C  0.39730600  0.81577964  0.33545741    -0.55500
C776        C  0.41398791  0.80104490  0.34536604     0.08400
C777        C  0.34644971  0.76551205  0.33566925    -0.55100
C778        C  0.36247065  0.74951862  0.34255448     0.09000
H779        H  0.35920747  0.80395171  0.43324591     0.13500
H780        H  0.40576566  0.75538780  0.37786965    -0.00700
H781        H  0.40851718  0.83773523  0.31576118     0.13800
H782        H  0.32549458  0.75628917  0.31439582     0.13600
C783        C  0.18607137  0.60899290  0.33868064     0.85400
C784        C  0.21498710  0.62073561  0.30742484    -0.54800
C785        C  0.23365406  0.60777858  0.31477926     0.08300
C786        C  0.21855883  0.57986909  0.35062991     0.19300
C787        C  0.16674247  0.57263315  0.32889440    -0.55500
C788        C  0.18317366  0.55679770  0.33555181     0.08400
C789        C  0.19827444  0.61118800  0.38669889    -0.55100
C790        C  0.21448822  0.59558622  0.39361701     0.09000
H791        H  0.22051674  0.63867477  0.28123894     0.13500
H792        H  0.23253488  0.56801034  0.35657865    -0.00700
H793        H  0.14183221  0.56006001  0.31872265     0.13800
H794        H  0.19262116  0.62249596  0.41406544     0.13600
C795        C  0.05422712  0.86301968  0.33976746     0.85400
C796        C  0.05829474  0.86042663  0.39028770    -0.54800
C797        C  0.08899485  0.87703319  0.40509805     0.08300
C798        C  0.11424670  0.89245367  0.36570341     0.19300
C799        C  0.07426442  0.89955194  0.32796000    -0.55500
C800        C  0.10534366  0.91529296  0.34240897     0.08400
C801        C  0.07378748  0.85015397  0.31758610    -0.55100
C802        C  0.10499773  0.86470971  0.33118520     0.09000
H803        H  0.03781540  0.84634836  0.41278983     0.13500
H804        H  0.13959401  0.90486203  0.37671695    -0.00700
H805        H  0.06475235  0.91225814  0.30994859     0.13800
H806        H  0.06458395  0.83242367  0.29105451     0.13600
C807        C  0.13097950  0.94058165  0.15663993     0.85400
C808        C  0.13227991  0.93358605  0.10635818    -0.54800
C809        C  0.11720291  0.90174372  0.09605259     0.08300
C810        C  0.10173108  0.87907964  0.13734861     0.19300
C811        C  0.09480359  0.92108856  0.16979568    -0.55500
C812        C  0.07900373  0.88921345  0.15863711     0.08400
C813        C  0.14421553  0.92246475  0.18140352    -0.55100
C814        C  0.12973939  0.89062351  0.17091396     0.09000
H815        H  0.14239089  0.95237415  0.08047069     0.13500
H816        H  0.08975965  0.85326302  0.12845416    -0.00700
H817        H  0.08196764  0.93111239  0.18647317     0.13800
H818        H  0.16291492  0.93364644  0.20648126     0.13600
C819        C  0.38557554  0.81578075  0.16144963     0.85400
C820        C  0.37445251  0.78605364  0.19077897    -0.54800
C821        C  0.38790344  0.76808806  0.18039104     0.08300
C822        C  0.41523990  0.78447172  0.14363447     0.19300
C823        C  0.42176400  0.83518404  0.17068212    -0.55500
C824        C  0.43799465  0.81977398  0.15994991     0.08400
C825        C  0.38290109  0.80470117  0.11245441    -0.55100
C826        C  0.39844931  0.78877990  0.10259118     0.09000
H827        H  0.35733901  0.77976362  0.21854712     0.13500
H828        H  0.42744687  0.77102384  0.13554971    -0.00700
H829        H  0.43356582  0.85912982  0.18485633     0.13800
H830        H  0.36991308  0.80954356  0.08707080     0.13600
C831        C  0.31316772  0.88316510  0.15863335     0.85400
C832        C  0.30744485  0.88708291  0.10882643    -0.54800
C833        C  0.29138441  0.90278512  0.10209595     0.08300
C834        C  0.28258753  0.91377189  0.14555366     0.19300
C835        C  0.32978569  0.91706158  0.17839914    -0.55500
C836        C  0.31517094  0.93431912  0.16994409     0.08400
C837        C  0.27964952  0.86700134  0.18116056    -0.55100
C838        C  0.26351130  0.88276585  0.17433780     0.09000
H839        H  0.31503485  0.87772482  0.08108694     0.13500
H840        H  0.26883371  0.92527297  0.13737421    -0.00700
H841        H  0.35200261  0.92666844  0.19628530     0.13800
H842        H  0.26966679  0.84590595  0.20291478     0.13600
C843        C  0.12144965  0.68481475  0.33536410     0.85400
C844        C  0.12080434  0.69382441  0.38472293    -0.54800
C845        C  0.10758078  0.71230208  0.39154009     0.08300
C846        C  0.09447882  0.71909478  0.34904659     0.19300
C847        C  0.08655401  0.66874133  0.31971351    -0.55500
C848        C  0.07164802  0.68565036  0.32859818     0.08400
C849        C  0.13804816  0.71750058  0.30961842    -0.55100
C850        C  0.12396714  0.73546050  0.31709102     0.09000
H851        H  0.13117829  0.68721257  0.41193725     0.13500
H852        H  0.08370197  0.73387596  0.35656252    -0.00700
H853        H  0.07399322  0.64513031  0.30451470     0.13800
H854        H  0.15854193  0.72562210  0.28677994     0.13600
C855        C  0.43028095  0.61841646  0.33945367     0.85400
C856        C  0.42457034  0.62290252  0.38893490    -0.54800
C857        C  0.39325621  0.61108768  0.40182689     0.08300
C858        C  0.36955192  0.59456076  0.36262460     0.19300
C859        C  0.40876827  0.58195902  0.33183355    -0.55500
C860        C  0.37726349  0.56906163  0.34531085     0.08400
C861        C  0.41337373  0.63260394  0.31286591    -0.55100
C862        C  0.38200298  0.62065838  0.32502217     0.09000
H863        H  0.44435387  0.63416383  0.41239274     0.13500
H864        H  0.34395904  0.58493864  0.37156788    -0.00700
H865        H  0.41772997  0.56715490  0.31872147     0.13800
H866        H  0.42453436  0.64993553  0.28536169     0.13600
C867        C  0.30312376  0.87852792  0.36057509     0.85400
C868        C  0.27213708  0.86318459  0.33482759    -0.54800
C869        C  0.25402447  0.87703296  0.34008932     0.08300
C870        C  0.26932878  0.90637762  0.37211637     0.19300
C871        C  0.32109150  0.91444320  0.34680453    -0.55500
C872        C  0.30354539  0.92918146  0.35247979     0.08400
C873        C  0.29315170  0.87912255  0.40981561    -0.55100
C874        C  0.27578820  0.89368585  0.41622488     0.09000
H875        H  0.26550494  0.84275181  0.31297683     0.13500
H876        H  0.25496023  0.91794466  0.37754790    -0.00700
H877        H  0.34663266  0.92842752  0.33955094     0.13800
H878        H  0.30143976  0.87100730  0.43797733     0.13600
C879        C  0.38736707  0.57505666  0.16131123     0.85400
C880        C  0.38330159  0.57775962  0.11041053    -0.54800
C881        C  0.39381834  0.60815153  0.09430183     0.08300
C882        C  0.40910617  0.63391040  0.13138906     0.19300
C883        C  0.42323656  0.59832371  0.16964915    -0.55500
C884        C  0.43511038  0.62856154  0.15202525     0.08400
C885        C  0.37188912  0.59210450  0.18394662    -0.55100
C886        C  0.38261388  0.62228039  0.16803250     0.09000
H887        H  0.37265022  0.55671828  0.08891369     0.13500
H888        H  0.41764407  0.65891821  0.12064084    -0.00700
H889        H  0.43876386  0.59246795  0.18743101     0.13800
H890        H  0.35422738  0.58149911  0.21149271     0.13600
C891        C  0.12365460  0.69733096  0.13083803     0.85400
C892        C  0.13955486  0.72861992  0.15685222    -0.54800
C893        C  0.12620901  0.74731676  0.15185246     0.08300
C894        C  0.09738350  0.73268689  0.11951427     0.19300
C895        C  0.08781823  0.68037828  0.14456831    -0.55500
C896        C  0.07384785  0.69863341  0.13897987     0.08400
C897        C  0.12348450  0.70736911  0.08178352    -0.55100
C898        C  0.11024915  0.72596321  0.07551975     0.09000
H899        H  0.15953754  0.73479885  0.17905706     0.13500
H900        H  0.08679470  0.74783101  0.11374226    -0.00700
H901        H  0.07336992  0.65495434  0.15228902     0.13800
H902        H  0.13255108  0.69974956  0.05364487     0.13600
O903        O  0.38610661  0.71887098  0.20343378    -0.82900
C904        C  0.26593012  0.62408919  0.29181344     0.96500
O905        O  0.27480545  0.65099130  0.27334388    -0.72000
O906        O  0.32568274  0.70202268  0.30481352    -0.75600
Al907      Al  0.31232417  0.68547168  0.24609231     1.49000
C908        C  0.35461175  0.72121281  0.31476034     0.91700
O909        O  0.37498991  0.66337343  0.30342289    -0.81800
O910        O  0.33914009  0.62792960  0.18674433    -0.75400
Al911      Al  0.37725010  0.68903355  0.25327569     1.90100
O912        O  0.34076231  0.61553959  0.27679078    -0.74400
O913        O  0.28118526  0.62079452  0.19652478    -0.74300
O914        O  0.28373080  0.61226167  0.28883918    -0.79900
O915        O  0.29606212  0.67140764  0.18712504    -0.78100
O916        O  0.33434390  0.66580776  0.24587243    -1.14300
O917        O  0.34516912  0.72435705  0.21920281    -0.73500
C918        C  0.37265586  0.73521051  0.20127104     0.97200
C919        C  0.36379336  0.63340063  0.30241166     0.93600
Al920      Al  0.31331899  0.62294795  0.23787457     1.55600
O921        O  0.37696773  0.71922998  0.29565013    -0.78100
C922        C  0.27777315  0.64218854  0.17726554     0.97800
C923        C  0.36919694  0.64038675  0.18780138     0.92700
O924        O  0.38641821  0.66370296  0.21327859    -0.83400
C925        C  0.48793794  0.68006903  0.16284738    -0.10200
C926        C  0.47021197  0.64947823  0.14358238     0.06000
C927        C  0.48666703  0.63745738  0.11877022    -0.04000
C928        C  0.01994908  0.65356270  0.11890068    -0.08400
C929        C  0.03812551  0.68330933  0.14034305     0.05100
C930        C  0.02172086  0.69750464  0.15999582    -0.03500
Br931      Br  0.04378280  0.74021722  0.18301769    -0.03200
H932        H  0.47553205  0.69015302  0.18055128     0.09000
H933        H  0.03184828  0.64334281  0.10022014     0.07000
Br934      Br  0.46499669  0.60017875  0.08120405    -0.03600
C935        C  0.40868770  0.64161357  0.47331747    -0.10200
C936        C  0.38563721  0.61416748  0.45009893     0.06000
C937        C  0.36090990  0.58861585  0.47582551    -0.04000
C938        C  0.36239507  0.58906973  0.02320030    -0.08400
C939        C  0.38921562  0.61369417  0.04584160     0.05100
C940        C  0.41188278  0.64080211  0.02020915    -0.03500
Br941      Br  0.45125935  0.67554457  0.04317353    -0.03200
H942        H  0.42694318  0.66233578  0.45434441     0.09000
H943        H  0.34346367  0.56887682  0.04216267     0.07000
Br944      Br  0.32655477  0.54992633  0.45049444    -0.03600
C945        C  0.32697464  0.51642096  0.32627471    -0.10200
C946        C  0.35547865  0.53348952  0.35085889     0.06000
C947        C  0.36390239  0.51593848  0.37976998    -0.04000
C948        C  0.34727578  0.98235887  0.37832679    -0.08400
C949        C  0.31969231  0.96504148  0.35239139     0.05100
C950        C  0.30836297  0.98231587  0.32839925    -0.03500
Br951      Br  0.26790946  0.96060646  0.29891478    -0.03200
H952        H  0.31914171  0.52942455  0.30550122     0.09000
H953        H  0.35549546  0.96969501  0.39907901     0.07000
Br954      Br  0.39427710  0.53567149  0.42712862    -0.03600
C955        C  0.13755922  0.75126867  0.00397510    -0.09200
C956        C  0.10857522  0.73627436  0.02901519     0.06000
C957        C  0.07935571  0.72141983  0.00542484    -0.04000
C958        C  0.07949541  0.71641705  0.45893379    -0.08400
C959        C  0.10838924  0.72630527  0.43576305     0.05100
C960        C  0.13770645  0.74594562  0.45748404    -0.03500
Br961      Br  0.17836398  0.76284973  0.42646938    -0.03200
H962        H  0.16024623  0.76341115  0.02141689     0.09000
H963        H  0.05687912  0.70233308  0.44171520     0.07000
Br964      Br  0.03842933  0.70440096  0.03440803    -0.03600
C965        C  0.01797399  0.63752452  0.34466468    -0.10200
C966        C  0.03575247  0.66920695  0.32822755     0.06000
C967        C  0.01875573  0.68396195  0.31456717    -0.04000
C968        C  0.48500094  0.66656069  0.31546771    -0.08400
C969        C  0.46680484  0.63412132  0.33060748     0.05100
C970        C  0.48451170  0.62043376  0.34710406    -0.03500
Br971      Br  0.46662516  0.58006659  0.37817810    -0.03200
H972        H  0.03034486  0.62625950  0.35825121     0.09000
H973        H  0.47343576  0.67968340  0.30672414     0.07000
Br974      Br  0.03959507  0.72808903  0.29643497    -0.03600
C975        C  0.36717772  0.98730812  0.17393949    -0.10200
C976        C  0.33322776  0.97035818  0.17539590     0.06000
C977        C  0.31839953  0.98874795  0.17819379    -0.04000
C978        C  0.33701563  0.52218248  0.17677068    -0.08400
C979        C  0.37097041  0.53931465  0.17468945     0.05100
C980        C  0.38597513  0.52080893  0.17408282    -0.03500
Br981      Br  0.43134047  0.53711525  0.17013858    -0.03200
H982        H  0.37984913  0.97479268  0.17021499     0.09000
H983        H  0.32418311  0.53478971  0.17493528     0.07000
Br984      Br  0.27322841  0.97148165  0.18498951    -0.03600
C985        C  0.30031740  0.92948625  0.48096252    -0.10200
C986        C  0.27280489  0.90323677  0.46255568     0.06000
C987        C  0.24825652  0.88103446  0.49187525    -0.04000
C988        C  0.25331955  0.88339342  0.03870139    -0.08400
C989        C  0.28265857  0.90731836  0.05634925     0.05100
C990        C  0.30572661  0.93154034  0.02752706    -0.03500
Br991      Br  0.34622023  0.96517329  0.04959496    -0.03200
H992        H  0.31954822  0.94649001  0.45886686     0.09000
H993        H  0.23541002  0.86473579  0.06081516     0.07000
Br994      Br  0.20989487  0.84511384  0.46884876    -0.03600
C995        C  0.38212260  0.86563717  0.15398569    -0.10200
C996        C  0.36692432  0.83316740  0.16776262     0.06000
C997        C  0.33300031  0.81660947  0.17498111    -0.04000
C998        C  0.31683589  0.83349726  0.17509659    -0.08400
C999        C  0.33241531  0.86632170  0.16332242     0.05100
C1000       C  0.36524102  0.88167344  0.14986369    -0.03500
Br1001     Br  0.38799803  0.92296010  0.11978446    -0.03200
H1002       H  0.40691988  0.87813981  0.14256335     0.09000
H1003       H  0.29117708  0.81958919  0.18008117     0.07000
Br1004     Br  0.30492930  0.77047555  0.17670211    -0.03600
C1005       C  0.02675180  0.88484042  0.14258555    -0.10200
C1006       C  0.04281180  0.86976516  0.15872366     0.06000
C1007       C  0.02393953  0.83762764  0.17445271    -0.04000
C1008       C  0.49011816  0.82172942  0.17460241    -0.08400
C1009       C  0.47416640  0.83724696  0.15939678     0.05100
C1010       C  0.49328986  0.86934101  0.14279399    -0.03500
Br1011     Br  0.47632116  0.89333845  0.11515795    -0.03200
H1012       H  0.04050910  0.90908128  0.12885044     0.09000
H1013       H  0.47617058  0.79725579  0.18741566     0.07000
Br1014     Br  0.04281196  0.81481243  0.19859086    -0.03600
C1015       C  0.12263245  0.88263805  0.47241233    -0.10200
C1016       C  0.09569660  0.88225884  0.45472110     0.06000
C1017       C  0.07535708  0.88676623  0.48527361    -0.04000
C1018       C  0.08209852  0.89078094  0.03156052    -0.08400
C1019       C  0.10901777  0.89153147  0.04864525     0.05100
C1020       C  0.12939807  0.88722028  0.01906680    -0.03500
Br1021     Br  0.16679630  0.88814573  0.04089806    -0.03200
H1022       H  0.13844145  0.87915347  0.45014723     0.09000
H1023       H  0.06690129  0.89502239  0.05411509     0.07000
Br1024     Br  0.03928654  0.89057083  0.46852830    -0.03600
C1025       C  0.17042144  0.67934898  0.32585491    -0.10200
C1026       C  0.13689358  0.66398682  0.33163994     0.06000
C1027       C  0.12037381  0.63081455  0.34437514    -0.04000
C1028       C  0.13610005  0.61338490  0.34297836    -0.08400
C1029       C  0.16925600  0.62841785  0.33405747     0.05100
C1030       C  0.18667476  0.66259115  0.32951100    -0.03500
Br1031     Br  0.23262695  0.68943113  0.33519577    -0.03200
H1032       H  0.18477141  0.70524633  0.32260548     0.09000
H1033       H  0.12256213  0.58828152  0.35290894     0.07000
Br1034     Br  0.07814200  0.60812448  0.37172424    -0.03600
C1035       C  0.13509586  0.50466142  0.35980533    -0.10200
C1036       C  0.16526764  0.52048674  0.33774304     0.06000
C1037       C  0.17628460  0.50124008  0.31808273    -0.04000
C1038       C  0.15701369  0.96705451  0.32028603    -0.08400
C1039       C  0.12628778  0.95146728  0.34123011     0.05100
C1040       C  0.11556752  0.97093051  0.36071492    -0.03500
Br1041     Br  0.07485709  0.95380555  0.39118648    -0.03200
H1042       H  0.12621197  0.51860165  0.37609902     0.09000
H1043       H  0.16568948  0.95272712  0.30465921     0.07000
Br1044     Br  0.21607580  0.51996488  0.28458171    -0.03600
C1045       C  0.41910668  0.79212214  0.47812391    -0.10200
C1046       C  0.38835722  0.77212873  0.46094963     0.06000
C1047       C  0.36290564  0.75236117  0.49109913    -0.04000
C1048       C  0.36787957  0.75518236  0.03814361    -0.08400
C1049       C  0.39790972  0.77772880  0.05561595     0.05100
C1050       C  0.42399823  0.79531886  0.02512673    -0.03500
Br1051     Br  0.46584495  0.82692282  0.04476376    -0.03200
H1052       H  0.43879682  0.80765372  0.45523724     0.09000
H1053       H  0.34750381  0.74168906  0.06101289     0.07000
Br1054     Br  0.32024931  0.72382471  0.47049455    -0.03600
C1055       C  0.46357338  0.79868519  0.32938555    -0.10200
C1056       C  0.44960957  0.81728447  0.33783312     0.06000
C1057       C  0.47039558  0.85085892  0.34332126    -0.04000
C1058       C  0.00346498  0.86467907  0.33816805    -0.08400
C1059       C  0.01799441  0.84637996  0.33025880     0.05100
C1060       C  0.99704209  0.81236070  0.32817612    -0.03500
Br1061     Br  0.01110355  0.78205296  0.33084784    -0.03200
H1062       H  0.44834725  0.77283305  0.32658936     0.09000
H1063       H  0.01797675  0.89000271  0.34550111     0.07000
Br1064     Br  0.45726419  0.87942026  0.36686957    -0.03600
C1065       C  0.35698393  0.84496882  0.32170876    -0.10200
C1066       C  0.34469640  0.81717575  0.34934976     0.06000
C1067       C  0.31580954  0.80756497  0.37361274    -0.04000
C1068       C  0.30386828  0.82817798  0.37653459    -0.08400
C1069       C  0.31906167  0.85843808  0.35445192     0.05100
C1070       C  0.34425795  0.86510888  0.32326122    -0.03500
Br1071     Br  0.36049865  0.89800017  0.27731636    -0.03200
H1072       H  0.37591989  0.85105348  0.29717621     0.09000
H1073       H  0.28205610  0.82020712  0.39632321     0.07000
Br1074     Br  0.29092138  0.76659217  0.40372839    -0.03600
C1075       C  0.13120705  0.99269569  0.16692929    -0.10200
C1076       C  0.14875955  0.97708324  0.16483284     0.06000
C1077       C  0.18275149  0.99689316  0.16218980    -0.04000
C1078       C  0.19736880  0.53027344  0.16539344    -0.08400
C1079       C  0.17968090  0.54572508  0.16429281     0.05100
C1080       C  0.14551076  0.52592060  0.16419022    -0.03500
Br1081     Br  0.11563572  0.54022902  0.15430125    -0.03200
H1082       H  0.10533682  0.97921559  0.16454913     0.09000
H1083       H  0.22338371  0.54436214  0.16521551     0.07000
Br1084     Br  0.21050475  0.98088530  0.14780512    -0.03600
C1085       C  0.19459759  0.56749574  0.46718277    -0.10200
C1086       C  0.22085865  0.59016921  0.44074627     0.06000
C1087       C  0.24871425  0.61351676  0.46255565    -0.04000
C1088       C  0.24831824  0.61647053  0.00987455    -0.08400
C1089       C  0.22044445  0.59622816  0.03571919     0.05100
C1090       C  0.19404862  0.57041949  0.01410118    -0.03500
Br1091     Br  0.15545732  0.54070971  0.04647086    -0.03200
H1092       H  0.17294059  0.54941785  0.45076794     0.09000
H1093       H  0.26890712  0.63630881  0.02594139     0.07000
Br1094     Br  0.28601545  0.64343507  0.42788108    -0.03600
C1095       C  0.15320527  0.63974446  0.16837159    -0.10200
C1096       C  0.18100317  0.65048319  0.14072655     0.06000
C1097       C  0.19099568  0.67853811  0.11424359    -0.04000
C1098       C  0.17204784  0.69257125  0.11240384    -0.08400
C1099       C  0.14247526  0.67978383  0.13632017     0.05100
C1100       C  0.13460775  0.65426930  0.16728818    -0.03500
Br1101     Br  0.10193672  0.63964601  0.21385648    -0.03200
H1102       H  0.14557894  0.62057911  0.19224531     0.09000
H1103       H  0.18076696  0.71400994  0.09171907     0.07000
Br1104     Br  0.23029064  0.69928137  0.07895309    -0.03600
O1105       O  0.12313007  0.79116673  0.68627727    -0.82900
C1106       C  0.22512718  0.86513025  0.81179844     0.96500
O1107       O  0.21968192  0.84260296  0.78538580    -0.72000
O1108       O  0.16625743  0.78696357  0.79409766    -0.75600
Al1109     Al  0.18815977  0.81519268  0.74494853     1.49000
C1110       C  0.13632454  0.76746835  0.79586894     0.91700
O1111       O  0.11573072  0.82695994  0.79819498    -0.81800
O1112       O  0.16943933  0.88367296  0.70276117    -0.75400
Al1113     Al  0.12282552  0.81109922  0.74308879     1.90100
O1114       O  0.15359698  0.87791518  0.79231561    -0.74400
O1115       O  0.22497477  0.88749767  0.72016179    -0.74300
O1116       O  0.20780938  0.87752958  0.81076379    -0.79900
O1117       O  0.21233347  0.84014448  0.69468599    -0.78100
O1118       O  0.16571969  0.83456686  0.74831015    -1.14300
O1119       O  0.16195224  0.78346148  0.70427719    -0.73500
C1120       C  0.13778860  0.77615725  0.68104193     0.97200
C1121       C  0.12667124  0.85615732  0.80794925     0.93600
Al1122     Al  0.18677144  0.87766028  0.75578556     1.55600
O1123       O  0.11724941  0.77402510  0.77655195    -0.78100
C1124       C  0.23137843  0.87006778  0.69573709     0.97800
C1125       C  0.14002362  0.87069762  0.69375557     0.92700
O1126       O  0.11960290  0.84306627  0.70889258    -0.83400
C1127       C  0.19902223  0.63182649  0.63713775     0.85400
C1128       C  0.20071587  0.62241161  0.58790162    -0.54800
C1129       C  0.21687940  0.60663679  0.58169924     0.08300
C1130       C  0.22879057  0.59996861  0.62599990     0.19300
C1131       C  0.18425035  0.59983342  0.66415467    -0.55500
C1132       C  0.19776862  0.58171038  0.65565971     0.08400
C1133       C  0.23390673  0.65003082  0.65287000    -0.55100
C1134       C  0.24948977  0.63325276  0.64881299     0.09000
H1135       H  0.19001653  0.62792651  0.55992165     0.13500
H1136       H  0.24193044  0.58722196  0.62009086    -0.00700
H1137       H  0.16542897  0.59192723  0.68893945     0.13800
H1138       H  0.24398156  0.67267699  0.67072571     0.13600
C1139       C  0.36282421  0.79931563  0.85577053     0.85400
C1140       C  0.36696754  0.79455488  0.90613219    -0.54800
C1141       C  0.38185206  0.77781890  0.91430313     0.08300
C1142       C  0.39328474  0.76875040  0.87112578     0.19300
C1143       C  0.39731418  0.81591370  0.83578641    -0.55500
C1144       C  0.41401222  0.80120717  0.84576167     0.08400
C1145       C  0.34650925  0.76558754  0.83575272    -0.55100
C1146       C  0.36255781  0.74963200  0.84273257     0.09000
H1147       H  0.35899779  0.80394231  0.93338157     0.13500
H1148       H  0.40580361  0.75555199  0.87824964    -0.00700
H1149       H  0.40853892  0.83790999  0.81615738     0.13800
H1150       H  0.32558666  0.75634032  0.81440853     0.13600
C1151       C  0.18601325  0.60891370  0.83853485     0.85400
C1152       C  0.21494466  0.62065548  0.80730724    -0.54800
C1153       C  0.23362132  0.60771556  0.81472298     0.08300
C1154       C  0.21851111  0.57980079  0.85055029     0.19300
C1155       C  0.16669545  0.57255052  0.82875259    -0.55500
C1156       C  0.18313267  0.55671810  0.83542149     0.08400
C1157       C  0.19820084  0.61111525  0.88656316    -0.55100
C1158       C  0.21443410  0.59553607  0.89351149     0.09000
H1159       H  0.22049644  0.63860074  0.78112229     0.13500
H1160       H  0.23249138  0.56794907  0.85652432    -0.00700
H1161       H  0.14179266  0.55998051  0.81854408     0.13800
H1162       H  0.19252219  0.62241192  0.91391792     0.13600
C1163       C  0.05426073  0.86327726  0.84004937     0.85400
C1164       C  0.05827711  0.86042541  0.89051404    -0.54800
C1165       C  0.08896223  0.87693577  0.90537760     0.08300
C1166       C  0.11425171  0.89249595  0.86605752     0.19300
C1167       C  0.07434602  0.89986584  0.82859906    -0.55500
C1168       C  0.10542348  0.91548437  0.84305071     0.08400
C1169       C  0.07379630  0.85047195  0.81762216    -0.55100
C1170       C  0.10497536  0.86488458  0.83129455     0.09000
H1171       H  0.03777705  0.84624986  0.91293868     0.13500
H1172       H  0.13958834  0.90481199  0.87710260    -0.00700
H1173       H  0.06489074  0.91269677  0.81078141     0.13800
H1174       H  0.06457738  0.83284490  0.79095231     0.13600
C1175       C  0.13075699  0.94052875  0.65660870     0.85400
C1176       C  0.13213171  0.93359015  0.60632646    -0.54800
C1177       C  0.11704857  0.90176356  0.59593746     0.08300
C1178       C  0.10154725  0.87905254  0.63721223     0.19300
C1179       C  0.09458336  0.92104775  0.66968529    -0.55500
C1180       C  0.07879725  0.88917128  0.65850201     0.08400
C1181       C  0.14393251  0.92238630  0.68143563    -0.55100
C1182       C  0.12952379  0.89057323  0.67086048     0.09000
H1183       H  0.14228174  0.95241101  0.58048738     0.13500
H1184       H  0.08958559  0.85324374  0.62827690    -0.00700
H1185       H  0.08178923  0.93113223  0.68630710     0.13800
H1186       H  0.16247512  0.93349365  0.70673426     0.13600
C1187       C  0.38522947  0.81556505  0.66097580     0.85400
C1188       C  0.37414393  0.78590188  0.69040817    -0.54800
C1189       C  0.38766881  0.76798121  0.68019695     0.08300
C1190       C  0.41500460  0.78432730  0.64344749     0.19300
C1191       C  0.42140508  0.83503250  0.67026828    -0.55500
C1192       C  0.43768657  0.81964824  0.65969007     0.08400
C1193       C  0.38261741  0.80442470  0.61202200    -0.55100
C1194       C  0.39823816  0.78854996  0.60230266     0.09000
H1195       H  0.35711835  0.77969889  0.71826430     0.13500
H1196       H  0.42725798  0.77090620  0.63548790    -0.00700
H1197       H  0.43314790  0.85900144  0.68436219     0.13800
H1198       H  0.36964245  0.80921553  0.58655485     0.13600
C1199       C  0.31294440  0.88306487  0.65846000     0.85400
C1200       C  0.30703432  0.88686226  0.60870425    -0.54800
C1201       C  0.29106486  0.90265640  0.60205774     0.08300
C1202       C  0.28248096  0.91380014  0.64554297     0.19300
C1203       C  0.32974798  0.91701812  0.67802679    -0.55500
C1204       C  0.31516879  0.93432385  0.66970740     0.08400
C1205       C  0.27951951  0.86705177  0.68125399    -0.55100
C1206       C  0.26343050  0.88287173  0.67448523     0.09000
H1207       H  0.31447253  0.87739458  0.58092682     0.13500
H1208       H  0.26876364  0.92534146  0.63738712    -0.00700
H1209       H  0.35206431  0.92661853  0.69571919     0.13800
H1210       H  0.26953521  0.84599213  0.70307016     0.13600
C1211       C  0.12144932  0.68483034  0.83540514     0.85400
C1212       C  0.12089257  0.69389475  0.88476275    -0.54800
C1213       C  0.10767171  0.71237375  0.89161526     0.08300
C1214       C  0.09447577  0.71910569  0.84916885     0.19300
C1215       C  0.08652393  0.66873188  0.81987923    -0.55500
C1216       C  0.07162200  0.68563503  0.82880893     0.08400
C1217       C  0.13799883  0.71750662  0.80960512    -0.55100
C1218       C  0.12391462  0.73546793  0.81712618     0.09000
H1219       H  0.13129354  0.68729185  0.91194991     0.13500
H1220       H  0.08368150  0.73387060  0.85670657    -0.00700
H1221       H  0.07394539  0.64511341  0.80470007     0.13800
H1222       H  0.15847994  0.72563101  0.78674140     0.13600
C1223       C  0.43028821  0.61838740  0.83954834     0.85400
C1224       C  0.42451770  0.62274576  0.88905738    -0.54800
C1225       C  0.39318852  0.61088860  0.90191185     0.08300
C1226       C  0.36952462  0.59447470  0.86262990     0.19300
C1227       C  0.40877582  0.58194037  0.83176441    -0.55500
C1228       C  0.37724360  0.56901100  0.84516617     0.08400
C1229       C  0.41340704  0.63264315  0.81305091    -0.55100
C1230       C  0.38202594  0.62067873  0.82515597     0.09000
H1231       H  0.44427252  0.63395782  0.91256740     0.13500
H1232       H  0.34392359  0.58482596  0.87156634    -0.00700
H1233       H  0.41777930  0.56716198  0.81868560     0.13800
H1234       H  0.42457385  0.65001449  0.78559918     0.13600
C1235       C  0.30312757  0.87861122  0.86047064     0.85400
C1236       C  0.27210937  0.86331077  0.83480546    -0.54800
C1237       C  0.25404197  0.87720664  0.84012961     0.08300
C1238       C  0.26943969  0.90656528  0.87213891     0.19300
C1239       C  0.32113919  0.91452794  0.84667655    -0.55500
C1240       C  0.30364692  0.92931904  0.85242512     0.08400
C1241       C  0.29323275  0.87924570  0.90973769    -0.55100
C1242       C  0.27593268  0.89386798  0.91621759     0.09000
H1243       H  0.26542090  0.84286178  0.81296306     0.13500
H1244       H  0.25511837  0.91817693  0.87762793    -0.00700
H1245       H  0.34667109  0.92846652  0.83932083     0.13800
H1246       H  0.30152922  0.87110941  0.93786457     0.13600
C1247       C  0.38730956  0.57518033  0.66092785     0.85400
C1248       C  0.38328305  0.57800296  0.61006044    -0.54800
C1249       C  0.39383994  0.60843744  0.59410708     0.08300
C1250       C  0.40913859  0.63411769  0.63128833     0.19300
C1251       C  0.42317444  0.59839675  0.66935647    -0.55500
C1252       C  0.43510045  0.62867609  0.65185824     0.08400
C1253       C  0.37184203  0.59220230  0.68366869    -0.55100
C1254       C  0.38262680  0.62243188  0.66792134     0.09000
H1255       H  0.37261461  0.55701136  0.58846629     0.13500
H1256       H  0.41772335  0.65915292  0.62060714    -0.00700
H1257       H  0.43865365  0.59246244  0.68712348     0.13800
H1258       H  0.35415592  0.58154776  0.71117791     0.13600
C1259       C  0.12392269  0.69756145  0.63083492     0.85400
C1260       C  0.13975319  0.72884068  0.65687161    -0.54800
C1261       C  0.12634315  0.74748330  0.65186937     0.08300
C1262       C  0.09754826  0.73282294  0.61947150     0.19300
C1263       C  0.08806771  0.68054924  0.64451246    -0.55500
C1264       C  0.07404425  0.69875602  0.63892451     0.08400
C1265       C  0.12377548  0.70761192  0.58178144    -0.55100
C1266       C  0.11047856  0.72614741  0.57548333     0.09000
H1267       H  0.15972135  0.73504028  0.67911557     0.13500
H1268       H  0.08691921  0.74792831  0.61367992    -0.00700
H1269       H  0.07365461  0.65512665  0.65224515     0.13800
H1270       H  0.13287499  0.70001254  0.55365968     0.13600
O1271       O  0.38605484  0.71890256  0.70349986    -0.82900
C1272       C  0.26595331  0.62410234  0.79193491     0.96500
O1273       O  0.27487362  0.65106160  0.77363696    -0.72000
O1274       O  0.32578647  0.70201486  0.80522585    -0.75600
Al1275     Al  0.31239282  0.68556316  0.74646954     1.49000
C1276       C  0.35472647  0.72128980  0.81502619     0.91700
O1277       O  0.37510473  0.66345542  0.80350968    -0.81800
O1278       O  0.33918729  0.62806715  0.68684517    -0.75400
Al1279     Al  0.37731448  0.68912327  0.75338438     1.90100
O1280       O  0.34080557  0.61561682  0.77691338    -0.74400
O1281       O  0.28131840  0.62098915  0.69661466    -0.74300
O1282       O  0.28375133  0.61227760  0.78891389    -0.79900
O1283       O  0.29614623  0.67161665  0.68750039    -0.78100
O1284       O  0.33440245  0.66589223  0.74608375    -1.14300
O1285       O  0.34519877  0.72445044  0.71961554    -0.73500
C1286       C  0.37258866  0.73523036  0.70140804     0.97200
C1287       C  0.36385267  0.63346534  0.80252824     0.93600
Al1288     Al  0.31337834  0.62304950  0.73798723     1.55600
O1289       O  0.37708033  0.71935871  0.79579151    -0.78100
C1290       C  0.27795476  0.64243152  0.67741533     0.97800
C1291       C  0.36923841  0.64051871  0.68784086     0.92700
O1292       O  0.38647272  0.66380282  0.71335134    -0.83400
C1293       C  0.48795414  0.68014645  0.66275130    -0.10200
C1294       C  0.47021342  0.64956383  0.64347648     0.06000
C1295       C  0.48665816  0.63753054  0.61866906    -0.04000
C1296       C  0.02012523  0.65360614  0.61905100    -0.08400
C1297       C  0.03830657  0.68339282  0.64039212     0.05100
C1298       C  0.02188711  0.69759482  0.65999262    -0.03500
Br1299     Br  0.04392654  0.74032952  0.68293869    -0.03200
H1300       H  0.47555794  0.69026101  0.68040403     0.09000
H1301       H  0.03202290  0.64336818  0.60041123     0.07000
Br1302     Br  0.46498059  0.60041743  0.58080374    -0.03600
C1303       C  0.40851792  0.64131723  0.97346609    -0.10200
C1304       C  0.38553770  0.61385633  0.95021702     0.06000
C1305       C  0.36090159  0.58821285  0.97592441    -0.04000
C1306       C  0.36235163  0.58954205  0.52309397    -0.08400
C1307       C  0.38924440  0.61407578  0.54570666     0.05100
C1308       C  0.41202436  0.64110573  0.52006826    -0.03500
Br1309     Br  0.45149587  0.67566801  0.54307893    -0.03200
H1310       H  0.42670133  0.66209251  0.95450201     0.09000
H1311       H  0.34335942  0.56941497  0.54208409     0.07000
Br1312     Br  0.32653747  0.54957659  0.95048999    -0.03600
C1313       C  0.32696093  0.51632777  0.82607774    -0.10200
C1314       C  0.35545788  0.53342438  0.85068905     0.06000
C1315       C  0.36382935  0.51589295  0.87972525    -0.04000
C1316       C  0.34741378  0.98250468  0.87825061    -0.08400
C1317       C  0.31982624  0.96518365  0.85231694     0.05100
C1318       C  0.30847824  0.98245228  0.82835804    -0.03500
Br1319     Br  0.26803290  0.96072486  0.79886825    -0.03200
H1320       H  0.31915005  0.52931223  0.80521659     0.09000
H1321       H  0.35565306  0.96984936  0.89895072     0.07000
Br1322     Br  0.39416131  0.53565405  0.92711514    -0.03600
C1323       C  0.13764233  0.75132534  0.50376376    -0.09200
C1324       C  0.10870854  0.73634693  0.52893220     0.06000
C1325       C  0.07943861  0.72143274  0.50545539    -0.04000
C1326       C  0.07950696  0.71647763  0.95889845    -0.08400
C1327       C  0.10844024  0.72633680  0.93585482     0.05100
C1328       C  0.13771984  0.74591403  0.95770695    -0.03500
Br1329     Br  0.17845475  0.76276897  0.92694033    -0.03200
H1330       H  0.16036894  0.76351238  0.52110186     0.09000
H1331       H  0.05692359  0.70244502  0.94158233     0.07000
Br1332     Br  0.03856820  0.70446754  0.53458309    -0.03600
C1333       C  0.01795716  0.63752758  0.84505570    -0.10200
C1334       C  0.03572359  0.66918139  0.82850141     0.06000
C1335       C  0.01871437  0.68389133  0.81470699    -0.04000
C1336       C  0.48504611  0.66649724  0.81539206    -0.08400
C1337       C  0.46683573  0.63410907  0.83075187     0.05100
C1338       C  0.48454316  0.62045774  0.84737885    -0.03500
Br1339     Br  0.46661583  0.58018469  0.87870158    -0.03200
H1340       H  0.03034067  0.62630296  0.85872997     0.09000
H1341       H  0.47350718  0.67961288  0.80649878     0.07000
Br1342     Br  0.03954210  0.72798534  0.79640129    -0.03600
C1343       C  0.36720059  0.98729516  0.67370194    -0.10200
C1344       C  0.33325544  0.97034678  0.67529074     0.06000
C1345       C  0.31843986  0.98873376  0.67842334    -0.04000
C1346       C  0.33696161  0.52227113  0.67638435    -0.08400
C1347       C  0.37091579  0.53941736  0.67416299     0.05100
C1348       C  0.38593842  0.52093041  0.67341109    -0.03500
Br1349     Br  0.43128091  0.53724610  0.66870343    -0.03200
H1350       H  0.37988467  0.97474880  0.66969536     0.09000
H1351       H  0.32411767  0.53486073  0.67456572     0.07000
Br1352     Br  0.27327983  0.97149259  0.68511844    -0.03600
C1353       C  0.30061720  0.92963895  0.98095612    -0.10200
C1354       C  0.27303505  0.90344046  0.96257653     0.06000
C1355       C  0.24848152  0.88127456  0.99191754    -0.04000
C1356       C  0.25303273  0.88321298  0.53866682    -0.08400
C1357       C  0.28231867  0.90720216  0.55634680     0.05100
C1358       C  0.30539429  0.93142568  0.52753166    -0.03500
Br1359     Br  0.34589686  0.96504056  0.54960292    -0.03200
H1360       H  0.31979105  0.94658596  0.95890347     0.09000
H1361       H  0.23513013  0.86452057  0.56078266     0.07000
Br1362     Br  0.20998964  0.84550279  0.96889469    -0.03600
C1363       C  0.38169844  0.86531368  0.65288100    -0.10200
C1364       C  0.36658113  0.83295802  0.66717357     0.06000
C1365       C  0.33271868  0.81649372  0.67500278    -0.04000
C1366       C  0.31661715  0.83343983  0.67526057    -0.08400
C1367       C  0.33214233  0.86617176  0.66298342     0.05100
C1368       C  0.36483770  0.88137443  0.64891480    -0.03500
Br1369     Br  0.38739267  0.92247548  0.61830684    -0.03200
H1370       H  0.40640331  0.87768955  0.64103391     0.09000
H1371       H  0.29100787  0.81960675  0.68075830     0.07000
Br1372     Br  0.30454137  0.77038117  0.67732543    -0.03600
C1373       C  0.02652125  0.88475588  0.64259021    -0.10200
C1374       C  0.04261148  0.86969783  0.65866663     0.06000
C1375       C  0.02377381  0.83756552  0.67443505    -0.04000
C1376       C  0.48977753  0.82160299  0.67447485    -0.08400
C1377       C  0.47384361  0.83712837  0.65922596     0.05100
C1378       C  0.49296752  0.86920373  0.64257605    -0.03500
Br1379     Br  0.47601462  0.89319010  0.61485890    -0.03200
H1380       H  0.04025229  0.90899058  0.62882650     0.09000
H1381       H  0.47582143  0.79714083  0.68732395     0.07000
Br1382     Br  0.04269299  0.81476785  0.69848719    -0.03600
C1383       C  0.12258536  0.88241240  0.97261544    -0.10200
C1384       C  0.09562905  0.88203218  0.95500345     0.06000
C1385       C  0.07528873  0.88649586  0.98561754    -0.04000
C1386       C  0.08207413  0.89097033  0.53126299    -0.08400
C1387       C  0.10893389  0.89163910  0.54845514     0.05100
C1388       C  0.12938035  0.88740858  0.51889308    -0.03500
Br1389     Br  0.16680796  0.88842388  0.54078376    -0.03200
H1390       H  0.13836555  0.87891384  0.95030833     0.09000
H1391       H  0.06685404  0.89521139  0.55377093     0.07000
Br1392     Br  0.03908121  0.89012765  0.96907310    -0.03600
C1393       C  0.17038873  0.67930804  0.82576275    -0.10200
C1394       C  0.13687049  0.66397202  0.83162783     0.06000
C1395       C  0.12034768  0.63079191  0.84435434    -0.04000
C1396       C  0.13605313  0.61333797  0.84286623    -0.08400
C1397       C  0.16920240  0.62835163  0.83389826     0.05100
C1398       C  0.18662903  0.66252905  0.82936448    -0.03500
Br1399     Br  0.23258205  0.68935283  0.83503628    -0.03200
H1400       H  0.18474436  0.70520558  0.82249804     0.09000
H1401       H  0.12251166  0.58822979  0.85278011     0.07000
Br1402     Br  0.07815339  0.60811815  0.87182609    -0.03600
C1403       C  0.13503409  0.50452001  0.85944764    -0.10200
C1404       C  0.16524028  0.52039377  0.83748155     0.06000
C1405       C  0.17628162  0.50117820  0.81776597    -0.04000
C1406       C  0.15707090  0.96720999  0.82074135    -0.08400
C1407       C  0.12645300  0.95165287  0.84200493     0.05100
C1408       C  0.11586511  0.97114092  0.86177988    -0.03500
Br1409     Br  0.07539624  0.95401592  0.89292947    -0.03200
H1410       H  0.12611844  0.51842612  0.87576076     0.09000
H1411       H  0.16565909  0.95286279  0.80493874     0.07000
Br1412     Br  0.21610861  0.51996088  0.78433926    -0.03600
C1413       C  0.41906043  0.79229515  0.97831921    -0.10200
C1414       C  0.38828584  0.77227611  0.96123736     0.06000
C1415       C  0.36287429  0.75254241  0.99146557    -0.04000
C1416       C  0.36783433  0.75495472  0.53778826    -0.08400
C1417       C  0.39782353  0.77750068  0.55535870     0.05100
C1418       C  0.42397050  0.79510004  0.52495188    -0.03500
Br1419     Br  0.46580790  0.82663619  0.54471054    -0.03200
H1420       H  0.43871584  0.80780791  0.95537318     0.09000
H1421       H  0.34741905  0.74144628  0.56058892     0.07000
Br1422     Br  0.32019435  0.72394034  0.97096602    -0.03600
C1423       C  0.46360841  0.79886478  0.82988218    -0.10200
C1424       C  0.44963952  0.81746195  0.83831520     0.06000
C1425       C  0.47041740  0.85103243  0.84385867    -0.04000
C1426       C  0.00349316  0.86495166  0.83844761    -0.08400
C1427       C  0.01804224  0.84667385  0.83050878     0.05100
C1428       C  0.99711500  0.81265333  0.82839115    -0.03500
Br1429     Br  0.01122339  0.78237370  0.83100621    -0.03200
H1430       H  0.44838593  0.77301584  0.82703572     0.09000
H1431       H  0.01798531  0.89027100  0.84580823     0.07000
Br1432     Br  0.45725239  0.87959371  0.86730079    -0.03600
C1433       C  0.35688664  0.84493152  0.82161752    -0.10200
C1434       C  0.34462110  0.81718616  0.84935710     0.06000
C1435       C  0.31571253  0.80757710  0.87355643    -0.04000
C1436       C  0.30377789  0.82820004  0.87642084    -0.08400
C1437       C  0.31899103  0.85845212  0.85430805     0.05100
C1438       C  0.34415140  0.86506714  0.82308517    -0.03500
Br1439     Br  0.36026914  0.89783775  0.77697400    -0.03200
H1440       H  0.37581303  0.85096742  0.79705943     0.09000
H1441       H  0.28196492  0.82025169  0.89620309     0.07000
Br1442     Br  0.29079218  0.76659069  0.90363288    -0.03600
C1443       C  0.13085058  0.99259595  0.66574979    -0.10200
C1444       C  0.14844939  0.97700682  0.66483672     0.06000
C1445       C  0.18246402  0.99683369  0.66303768    -0.04000
C1446       C  0.19791481  0.53050713  0.66496331    -0.08400
C1447       C  0.18024528  0.54601630  0.66491172     0.05100
C1448       C  0.14606245  0.52620363  0.66618665    -0.03500
Br1449     Br  0.11590647  0.54035463  0.65801515    -0.03200
H1450       H  0.10504916  0.97907934  0.66251505     0.09000
H1451       H  0.22389566  0.54450888  0.66396589     0.07000
Br1452     Br  0.21046348  0.98094244  0.64986551    -0.03600
C1453       C  0.19441453  0.56747986  0.96700134    -0.10200
C1454       C  0.22074754  0.59009726  0.94065633     0.06000
C1455       C  0.24859644  0.61338106  0.96255955    -0.04000
C1456       C  0.24849157  0.61665904  0.50985766    -0.08400
C1457       C  0.22068955  0.59635315  0.53579168     0.05100
C1458       C  0.19432288  0.57043504  0.51430738    -0.03500
Br1459     Br  0.15593563  0.54056892  0.54704103    -0.03200
H1460       H  0.17275599  0.54947403  0.95050918     0.09000
H1461       H  0.26906423  0.63656503  0.52585255     0.07000
Br1462     Br  0.28596713  0.64330975  0.92801785    -0.03600
C1463       C  0.15336742  0.63983280  0.66813080    -0.10200
C1464       C  0.18124701  0.65065697  0.64063384     0.06000
C1465       C  0.19127429  0.67875713  0.61422717    -0.04000
C1466       C  0.17235928  0.69283463  0.61245542    -0.08400
C1467       C  0.14277321  0.68003788  0.63633863     0.05100
C1468       C  0.13483885  0.65443610  0.66717408    -0.03500
Br1469     Br  0.10221302  0.63983385  0.71381008    -0.03200
H1470       H  0.14558424  0.62049980  0.69175462     0.09000
H1471       H  0.18110096  0.71430119  0.59182203     0.07000
Br1472     Br  0.23054072  0.69946759  0.57886926    -0.03600
O1473       O  0.62309901  0.29114693  0.18628922    -0.82900
C1474       C  0.72512060  0.36513006  0.31176580     0.96500
O1475       O  0.71967249  0.34259959  0.28535709    -0.72000
O1476       O  0.66624985  0.28696170  0.29409246    -0.75600
Al1477     Al  0.68814331  0.31518229  0.24493187     1.49000
C1478       C  0.63631655  0.26747041  0.29588052     0.91700
O1479       O  0.61572796  0.32695311  0.29820846    -0.81800
O1480       O  0.66941216  0.38365508  0.20274749    -0.75400
Al1481     Al  0.62280810  0.31108752  0.24309851     1.90100
O1482       O  0.65358715  0.37790903  0.29230745    -0.74400
O1483       O  0.72495426  0.38748526  0.22013218    -0.74300
O1484       O  0.70780111  0.37752713  0.31073600    -0.79900
O1485       O  0.71231192  0.34013068  0.19465952    -0.78100
O1486       O  0.66570348  0.33455641  0.24829931    -1.14300
O1487       O  0.66192407  0.28344065  0.20427134    -0.73500
C1488       C  0.63775236  0.27613246  0.18105061     0.97200
C1489       C  0.62666777  0.35615070  0.30795768     0.93600
Al1490     Al  0.68675515  0.37765076  0.25576571     1.55600
O1491       O  0.61723874  0.27402215  0.27656409    -0.78100
C1492       C  0.73135918  0.37005444  0.19571138     0.97800
C1493       C  0.63999361  0.37067725  0.19375781     0.92700
O1494       O  0.61957708  0.34304819  0.20890502    -0.83400
C1495       C  0.69896688  0.13179776  0.13714740     0.85400
C1496       C  0.70064706  0.12237371  0.08791338    -0.54800
C1497       C  0.71681511  0.10660507  0.08170397     0.08300
C1498       C  0.72874431  0.09995011  0.12599593     0.19300
C1499       C  0.68420935  0.09981137  0.16417685    -0.55500
C1500       C  0.69773270  0.08169300  0.15567579     0.08400
C1501       C  0.73385822  0.15001154  0.15285989    -0.55100
C1502       C  0.74944609  0.13323785  0.14879417     0.09000
H1503       H  0.68993796  0.12788104  0.05993803     0.13500
H1504       H  0.74188752  0.08720801  0.12007765    -0.00700
H1505       H  0.66539445  0.09190834  0.18897484     0.13800
H1506       H  0.74393495  0.17266002  0.17070970     0.13600
C1507       C  0.86279201  0.29930190  0.35570596     0.85400
C1508       C  0.86693431  0.29454756  0.40607042    -0.54800
C1509       C  0.88181813  0.27781257  0.41425098     0.08300
C1510       C  0.89325166  0.26873921  0.37107976     0.19300
C1511       C  0.89728143  0.31589631  0.33572039    -0.55500
C1512       C  0.91398056  0.30119306  0.34570875     0.08400
C1513       C  0.84647737  0.26557264  0.33569673    -0.55100
C1514       C  0.86252644  0.24961886  0.34268430     0.09000
H1515       H  0.85896263  0.30393707  0.43331476     0.13500
H1516       H  0.90576730  0.25553926  0.37821380    -0.00700
H1517       H  0.90850146  0.33788368  0.31607013     0.13800
H1518       H  0.82555665  0.25632454  0.31434829     0.13600
C1519       C  0.68600093  0.10893251  0.33856456     0.85400
C1520       C  0.71492351  0.12067310  0.30731715    -0.54800
C1521       C  0.73360515  0.10773707  0.31472164     0.08300
C1522       C  0.71851274  0.07983331  0.35056622     0.19300
C1523       C  0.66668467  0.07256563  0.32880446    -0.55500
C1524       C  0.68313007  0.05674131  0.33546527     0.08400
C1525       C  0.69820836  0.11115142  0.38658320    -0.55100
C1526       C  0.71444893  0.09557905  0.39352594     0.09000
H1527       H  0.72046834  0.13861826  0.28113446     0.13500
H1528       H  0.73249897  0.06798716  0.35653420    -0.00700
H1529       H  0.64177860  0.05998681  0.31861137     0.13800
H1530       H  0.69253000  0.12244685  0.41394017     0.13600
C1531       C  0.55425819  0.36326863  0.34004675     0.85400
C1532       C  0.55826880  0.36042033  0.39051337    -0.54800
C1533       C  0.58895180  0.37693040  0.40538306     0.08300
C1534       C  0.61424600  0.39248879  0.36606604     0.19300
C1535       C  0.57434418  0.39985563  0.32858952    -0.55500
C1536       C  0.60542013  0.41547512  0.34304554     0.08400
C1537       C  0.57379425  0.35046055  0.31763245    -0.55100
C1538       C  0.60497222  0.36487508  0.33130798     0.09000
H1539       H  0.53776637  0.34624329  0.41293356     0.13500
H1540       H  0.63958159  0.40480560  0.37711588    -0.00700
H1541       H  0.56488925  0.41268498  0.31076617     0.13800
H1542       H  0.56457789  0.33283213  0.29096507     0.13600
C1543       C  0.63071915  0.44049871  0.15659235     0.85400
C1544       C  0.63208477  0.43354521  0.10631428    -0.54800
C1545       C  0.61699832  0.40171554  0.09594279     0.08300
C1546       C  0.60150300  0.37901634  0.13722900     0.19300
C1547       C  0.59454625  0.42102273  0.16967841    -0.55500
C1548       C  0.57875796  0.38914226  0.15851495     0.08400
C1549       C  0.64389694  0.42236171  0.18142719    -0.55100
C1550       C  0.62948565  0.39054621  0.17086721     0.09000
H1551       H  0.64223156  0.45235877  0.08046476     0.13500
H1552       H  0.58953888  0.35320477  0.12830803    -0.00700
H1553       H  0.58175267  0.43110966  0.18629264     0.13800
H1554       H  0.66244916  0.43347757  0.20671141     0.13600
C1555       C  0.88523614  0.31557303  0.16099093     0.85400
C1556       C  0.87416569  0.28591245  0.19042167    -0.54800
C1557       C  0.88767130  0.26798108  0.18016963     0.08300
C1558       C  0.91498850  0.28432219  0.14339200     0.19300
C1559       C  0.92141816  0.33503595  0.17023622    -0.55500
C1560       C  0.93768620  0.31964285  0.15962741     0.08400
C1561       C  0.88259140  0.30442901  0.11203330    -0.55100
C1562       C  0.89820245  0.28855013  0.10227532     0.09000
H1563       H  0.85716527  0.27971820  0.21830894     0.13500
H1564       H  0.92723292  0.27089639  0.13540479    -0.00700
H1565       H  0.93317600  0.35900825  0.18432111     0.13800
H1566       H  0.86960571  0.30922518  0.08659015     0.13600
C1567       C  0.81293833  0.38305690  0.15848469     0.85400
C1568       C  0.80704341  0.38685930  0.10872327    -0.54800
C1569       C  0.79107620  0.40265443  0.10206301     0.08300
C1570       C  0.78247726  0.41379190  0.14554108     0.19300
C1571       C  0.82973391  0.41700716  0.17805669    -0.55500
C1572       C  0.81515830  0.43431359  0.16972306     0.08400
C1573       C  0.77950487  0.36703940  0.18125622    -0.55100
C1574       C  0.76341682  0.38285888  0.17447293     0.09000
H1575       H  0.81449156  0.37739593  0.08095202     0.13500
H1576       H  0.76876203  0.42533391  0.13737600    -0.00700
H1577       H  0.85204912  0.42660959  0.19575388     0.13800
H1578       H  0.76951264  0.34597895  0.20306973     0.13600
C1579       C  0.62142440  0.18483393  0.33543070     0.85400
C1580       C  0.62086480  0.19389562  0.38478938    -0.54800
C1581       C  0.60765306  0.21238309  0.39164087     0.08300
C1582       C  0.59446459  0.21912185  0.34919183     0.19300
C1583       C  0.58650176  0.16874487  0.31989660    -0.55500
C1584       C  0.57160623  0.18565436  0.32882741     0.08400
C1585       C  0.63798272  0.21751017  0.30963409    -0.55100
C1586       C  0.62390611  0.23547734  0.31715355     0.09000
H1587       H  0.63126143  0.18728809  0.41197710     0.13500
H1588       H  0.58367587  0.23389266  0.35672425    -0.00700
H1589       H  0.57391927  0.14512824  0.30471260     0.13800
H1590       H  0.65846186  0.22562837  0.28676804     0.13600
C1591       C  0.93024706  0.11837141  0.33955845     0.85400
C1592       C  0.92447308  0.12273262  0.38906390    -0.54800
C1593       C  0.89314392  0.11088300  0.40191016     0.08300
C1594       C  0.86948239  0.09446970  0.36262553     0.19300
C1595       C  0.90873032  0.08192657  0.33177345    -0.55500
C1596       C  0.87719862  0.06900242  0.34517077     0.08400
C1597       C  0.91337371  0.13263244  0.31305204    -0.55100
C1598       C  0.88199077  0.12067193  0.32514775     0.09000
H1599       H  0.94422565  0.13394220  0.41257807     0.13500
H1600       H  0.84388120  0.08482428  0.37155811    -0.00700
H1601       H  0.91772882  0.06714500  0.31869085     0.13800
H1602       H  0.92454810  0.15000416  0.28560200     0.13600
C1603       C  0.80311844  0.37861068  0.36044025     0.85400
C1604       C  0.77210640  0.36331719  0.33476309    -0.54800
C1605       C  0.75403875  0.37721179  0.34008880     0.08300
C1606       C  0.76943245  0.40656619  0.37210571     0.19300
C1607       C  0.82113510  0.41452906  0.34665847    -0.55500
C1608       C  0.80364408  0.42932130  0.35240532     0.08400
C1609       C  0.79321476  0.37923716  0.40970621    -0.55100
C1610       C  0.77591502  0.39386025  0.41618427     0.09000
H1611       H  0.76541990  0.34287060  0.31291634     0.13500
H1612       H  0.75511163  0.41817875  0.37759165    -0.00700
H1613       H  0.84666875  0.42846679  0.33931389     0.13800
H1614       H  0.80150502  0.37109505  0.43783373     0.13600
C1615       C  0.88729237  0.07515713  0.16094603     0.85400
C1616       C  0.88328393  0.07798151  0.11007320    -0.54800
C1617       C  0.89384232  0.10841631  0.09412064     0.08300
C1618       C  0.90912587  0.13409440  0.13130629     0.19300
C1619       C  0.92315278  0.09837547  0.16940210    -0.55500
C1620       C  0.93508300  0.12865538  0.15190283     0.08400
C1621       C  0.87181247  0.09217493  0.18366661    -0.55100
C1622       C  0.88259834  0.12240380  0.16791603     0.09000
H1623       H  0.87262076  0.05699117  0.08847663     0.13500
H1624       H  0.91771229  0.15912988  0.12062393    -0.00700
H1625       H  0.93862556  0.09243643  0.18718062     0.13800
H1626       H  0.85412229  0.08152213  0.21117055     0.13600
C1627       C  0.62386051  0.19752715  0.13082961     0.85400
C1628       C  0.63968942  0.22879723  0.15689026    -0.54800
C1629       C  0.62629159  0.24745069  0.15188824     0.08300
C1630       C  0.59750563  0.23280736  0.11947450     0.19300
C1631       C  0.58800213  0.18051774  0.14448406    -0.55500
C1632       C  0.57398881  0.19873419  0.13889912     0.08400
C1633       C  0.62373060  0.20759672  0.08178074    -0.55100
C1634       C  0.61044547  0.22614327  0.07548789     0.09000
H1635       H  0.65965139  0.23498631  0.17914138     0.13500
H1636       H  0.58688417  0.24792021  0.11368791    -0.00700
H1637       H  0.57358169  0.15509278  0.15219973     0.13800
H1638       H  0.63283148  0.20000062  0.05365678     0.13600
O1639       O  0.88603531  0.21888744  0.20345175    -0.82900
C1640       C  0.76592773  0.12411380  0.29190723     0.96500
O1641       O  0.77484279  0.15106465  0.27358533    -0.72000
O1642       O  0.82576093  0.20200933  0.30516805    -0.75600
Al1643     Al  0.81236933  0.18555914  0.24641406     1.49000
C1644       C  0.85469981  0.22128084  0.31497472     0.91700
O1645       O  0.87507715  0.16344911  0.30347543    -0.81800
O1646       O  0.83915306  0.12803778  0.18682658    -0.75400
Al1647     Al  0.87728780  0.18911103  0.25334277     1.90100
O1648       O  0.84076959  0.11560708  0.27689989    -0.74400
O1649       O  0.78128479  0.12097984  0.19658651    -0.74300
O1650       O  0.78372501  0.11228797  0.28889387    -0.79900
O1651       O  0.79612103  0.17160823  0.18744643    -0.78100
O1652       O  0.83437527  0.16588343  0.24604052    -1.14300
O1653       O  0.84518342  0.22444380  0.21955755    -0.73500
C1654       C  0.87257635  0.23522166  0.20135938     0.97200
C1655       C  0.86382085  0.13345838  0.30250732     0.93600
Al1656     Al  0.81334535  0.12303962  0.23796431     1.55600
O1657       O  0.87705514  0.21935068  0.29574292    -0.78100
C1658       C  0.77792076  0.14242072  0.17737993     0.97800
C1659       C  0.86920531  0.14049115  0.18782207     0.92700
O1660       O  0.88644074  0.16378335  0.21331958    -0.83400
C1661       C  0.98793907  0.18012490  0.16279841    -0.10200
C1662       C  0.97019776  0.14954083  0.14352687     0.06000
C1663       C  0.98664291  0.13750714  0.11872092    -0.04000
C1664       C  0.52007099  0.15360401  0.11897353    -0.08400
C1665       C  0.53825261  0.18337938  0.14034343     0.05100
C1666       C  0.52183542  0.19757633  0.15996545    -0.03500
Br1667     Br  0.54387872  0.24029937  0.18295243    -0.03200
H1668       H  0.97554318  0.19023865  0.18045374     0.09000
H1669       H  0.53196879  0.14337164  0.10032020     0.07000
Br1670     Br  0.96496819  0.10039409  0.08085610    -0.03600
C1671       C  0.90847407  0.14132128  0.47345327    -0.10200
C1672       C  0.88549202  0.11385788  0.45021094     0.06000
C1673       C  0.86086069  0.08821492  0.47592389    -0.04000
C1674       C  0.86235144  0.08952995  0.02310798    -0.08400
C1675       C  0.88924621  0.11405840  0.04572325     0.05100
C1676       C  0.91202120  0.14109636  0.02009484    -0.03500
Br1677     Br  0.95150308  0.17564151  0.04310695    -0.03200
H1678       H  0.92665493  0.16209487  0.45448363     0.09000
H1679       H  0.84336311  0.06939631  0.04209304     0.07000
Br1680     Br  0.82649739  0.04957618  0.45049392    -0.03600
C1681       C  0.82690548  0.01632654  0.32609353    -0.10200
C1682       C  0.85541179  0.03341678  0.35068468     0.06000
C1683       C  0.86379955  0.01587825  0.37967826    -0.04000
C1684       C  0.84740901  0.48249678  0.37826304    -0.08400
C1685       C  0.81982744  0.46518579  0.35231454     0.05100
C1686       C  0.80848952  0.48246343  0.32835637    -0.03500
Br1687     Br  0.76805923  0.46074760  0.29882671    -0.03200
H1688       H  0.81907736  0.02931639  0.30527679     0.09000
H1689       H  0.85564191  0.46983452  0.39895731     0.07000
Br1690     Br  0.89410909  0.03561925  0.42709879    -0.03600
C1691       C  0.63763422  0.25132861  0.00378767    -0.09200
C1692       C  0.60869413  0.23636158  0.02894131     0.06000
C1693       C  0.57943093  0.22146289  0.00544935    -0.04000
C1694       C  0.57950748  0.21652791  0.45891978    -0.08400
C1695       C  0.60843523  0.22635804  0.43587697     0.05100
C1696       C  0.63771994  0.24592268  0.45772504    -0.03500
Br1697     Br  0.67845203  0.26272750  0.42696820    -0.03200
H1698       H  0.66035620  0.26350657  0.02113779     0.09000
H1699       H  0.55692146  0.20250634  0.44160672     0.07000
Br1700     Br  0.53855673  0.20453001  0.03455479    -0.03600
C1701       C  0.51794737  0.13755629  0.34511235    -0.10200
C1702       C  0.53570836  0.16920329  0.32853506     0.06000
C1703       C  0.51869530  0.18390877  0.31473868    -0.04000
C1704       C  0.98501296  0.16647740  0.31543815    -0.08400
C1705       C  0.96679450  0.13408439  0.33077306     0.05100
C1706       C  0.98449342  0.12042074  0.34739190    -0.03500
Br1707     Br  0.96655553  0.08013042  0.37867119    -0.03200
H1708       H  0.53033555  0.12633914  0.35879771     0.09000
H1709       H  0.97347875  0.17959933  0.30655372     0.07000
Br1710     Br  0.53952247  0.22800140  0.29642527    -0.03600
C1711       C  0.86719803  0.48727870  0.17370208    -0.10200
C1712       C  0.83325244  0.47033740  0.17529069     0.06000
C1713       C  0.81844402  0.48873159  0.17840654    -0.04000
C1714       C  0.83694985  0.02224424  0.17642320    -0.08400
C1715       C  0.87090391  0.03939472  0.17417917     0.05100
C1716       C  0.88592999  0.02091121  0.17338103    -0.03500
Br1717     Br  0.93127268  0.03723584  0.16863266    -0.03200
H1718       H  0.87987834  0.47472570  0.16969885     0.09000
H1719       H  0.82410028  0.03482831  0.17462813     0.07000
Br1720     Br  0.77328352  0.47150527  0.18506575    -0.03600
C1721       C  0.80057975  0.42963723  0.48092360    -0.10200
C1722       C  0.77300782  0.40342618  0.46254394     0.06000
C1723       C  0.74845978  0.38125192  0.49188425    -0.04000
C1724       C  0.75306213  0.38323000  0.03865132    -0.08400
C1725       C  0.78234758  0.40720922  0.05634505     0.05100
C1726       C  0.80543590  0.43143106  0.02754044    -0.03500
Br1727     Br  0.84594145  0.46502993  0.04962850    -0.03200
H1728       H  0.81974511  0.44658555  0.45887795     0.09000
H1729       H  0.73515168  0.36453770  0.06075830     0.07000
Br1730     Br  0.70998602  0.34545760  0.46886109    -0.03600
C1731       C  0.88170325  0.36532016  0.15291472    -0.10200
C1732       C  0.86659394  0.33296922  0.16722708     0.06000
C1733       C  0.83273550  0.31650764  0.17510086    -0.04000
C1734       C  0.81663048  0.33344987  0.17535009    -0.08400
C1735       C  0.83214347  0.36617194  0.16302484     0.05100
C1736       C  0.86483736  0.38137559  0.14894612    -0.03500
Br1737     Br  0.88738592  0.42247322  0.11832851    -0.03200
H1738       H  0.90640411  0.37769447  0.14105040     0.09000
H1739       H  0.79102580  0.31961659  0.18088018     0.07000
Br1740     Br  0.80455650  0.27039661  0.17750446    -0.03600
C1741       C  0.52647914  0.38471818  0.14259843    -0.10200
C1742       C  0.54257248  0.36966806  0.15869312     0.06000
C1743       C  0.52373819  0.33754243  0.17448998    -0.04000
C1744       C  0.98977363  0.32159158  0.17441363    -0.08400
C1745       C  0.97384217  0.33711404  0.15914410     0.05100
C1746       C  0.99296662  0.36918407  0.14247650    -0.03500
Br1747     Br  0.97600881  0.39315636  0.11472917    -0.03200
H1748       H  0.54020747  0.40894663  0.12881268     0.09000
H1749       H  0.97581574  0.29713283  0.18727503     0.07000
Br1750     Br  0.54266151  0.31475353  0.19855913    -0.03600
C1751       C  0.62256039  0.38238698  0.47262843    -0.10200
C1752       C  0.59561196  0.38201971  0.45501136     0.06000
C1753       C  0.57527115  0.38648467  0.48562379    -0.04000
C1754       C  0.58201808  0.39091723  0.03127738    -0.08400
C1755       C  0.60887606  0.39158125  0.04846651     0.05100
C1756       C  0.62932272  0.38735352  0.01890173    -0.03500
Br1757     Br  0.66673241  0.38833444  0.04079694    -0.03200
H1758       H  0.63833665  0.37888039  0.45032410     0.09000
H1759       H  0.56679521  0.39515098  0.05379037     0.07000
Br1760     Br  0.53905578  0.39010416  0.46908144    -0.03600
C1761       C  0.67036609  0.17931774  0.32581979    -0.10200
C1762       C  0.63684499  0.16397622  0.33165290     0.06000
C1763       C  0.62031926  0.13079206  0.34435636    -0.04000
C1764       C  0.63602923  0.11334235  0.34287481    -0.08400
C1765       C  0.66918287  0.12836330  0.33393504     0.05100
C1766       C  0.68660742  0.16254078  0.32942213    -0.03500
Br1767     Br  0.73255876  0.18936216  0.33510902    -0.03200
H1768       H  0.68472147  0.20521660  0.32257563     0.09000
H1769       H  0.62248560  0.08823143  0.35277309     0.07000
Br1770     Br  0.57811315  0.10810487  0.37179046    -0.03600
C1771       C  0.63504945  0.00453855  0.35952239    -0.10200
C1772       C  0.66524638  0.02041739  0.33753098     0.06000
C1773       C  0.67628429  0.00120683  0.31778884    -0.04000
C1774       C  0.65705527  0.46720001  0.32069407    -0.08400
C1775       C  0.62644802  0.45164329  0.34198836     0.05100
C1776       C  0.61586389  0.47113123  0.36177342    -0.03500
Br1777     Br  0.57540769  0.45400262  0.39295877    -0.03200
H1778       H  0.62613771  0.01844135  0.37585562     0.09000
H1779       H  0.66563838  0.45285244  0.30487841     0.07000
Br1780     Br  0.71610202  0.01999945  0.28433700    -0.03600
C1781       C  0.91902526  0.29227786  0.47826886    -0.10200
C1782       C  0.88824758  0.27227137  0.46118877     0.06000
C1783       C  0.86283313  0.25254696  0.49141837    -0.04000
C1784       C  0.86776694  0.25499670  0.03774233    -0.08400
C1785       C  0.89776757  0.27750907  0.05531860     0.05100
C1786       C  0.92392427  0.29507921  0.02491473    -0.03500
Br1787     Br  0.96578167  0.32656351  0.04467048    -0.03200
H1788       H  0.93868409  0.30778092  0.45532103     0.09000
H1789       H  0.84734542  0.24150702  0.06053912     0.07000
Br1790     Br  0.82015179  0.22394923  0.47091832    -0.03600
C1791       C  0.96357700  0.29884102  0.32989105    -0.10200
C1792       C  0.94960858  0.31744541  0.33826905     0.06000
C1793       C  0.97038839  0.35101981  0.34377865    -0.04000
C1794       C  0.50349594  0.36494574  0.33845364    -0.08400
C1795       C  0.51804266  0.34666765  0.33049925     0.05100
C1796       C  0.49711467  0.31264766  0.32837133    -0.03500
Br1797     Br  0.51121695  0.28236405  0.33099541    -0.03200
H1798       H  0.94835424  0.27299051  0.32706581     0.09000
H1799       H  0.51798977  0.39026370  0.34582588     0.07000
Br1800     Br  0.95722683  0.37960689  0.36712693    -0.03600
C1801       C  0.85685778  0.34491830  0.32155412    -0.10200
C1802       C  0.84458879  0.31717036  0.34928707     0.06000
C1803       C  0.81568190  0.30756298  0.37348922    -0.04000
C1804       C  0.80375725  0.32819301  0.37637215    -0.08400
C1805       C  0.81897768  0.35844933  0.35427157     0.05100
C1806       C  0.84413216  0.36506124  0.32303940    -0.03500
Br1807     Br  0.86026009  0.39784363  0.27694721    -0.03200
H1808       H  0.87578290  0.35095341  0.29699145     0.09000
H1809       H  0.78194535  0.32024609  0.39615715     0.07000
Br1810     Br  0.79075302  0.26657135  0.40354788    -0.03600
C1811       C  0.63083705  0.49257922  0.16577232    -0.10200
C1812       C  0.64842556  0.47698025  0.16479969     0.06000
C1813       C  0.68244011  0.49679731  0.16294014    -0.04000
C1814       C  0.69790061  0.03050181  0.16497082    -0.08400
C1815       C  0.68022130  0.04600122  0.16493364     0.05100
C1816       C  0.64604007  0.02618089  0.16622220    -0.03500
Br1817     Br  0.61587162  0.04031872  0.15807871    -0.03200
H1818       H  0.60503291  0.47907061  0.16259991     0.09000
H1819       H  0.72387949  0.04450926  0.16396424     0.07000
Br1820     Br  0.71041558  0.48088201  0.14972808    -0.03600
C1821       C  0.69439630  0.06752874  0.46700850    -0.10200
C1822       C  0.72074726  0.09012613  0.44067161     0.06000
C1823       C  0.74860590  0.11338523  0.46258361    -0.04000
C1824       C  0.74844770  0.11661549  0.00989049    -0.08400
C1825       C  0.72062464  0.09632645  0.03579480     0.05100
C1826       C  0.69424599  0.07044242  0.01428020    -0.03500
Br1827     Br  0.65582561  0.04060537  0.04697844    -0.03200
H1828       H  0.67273080  0.04954184  0.45050966     0.09000
H1829       H  0.76902728  0.13649709  0.02591084     0.07000
Br1830     Br  0.78600148  0.14328181  0.42805778    -0.03600
C1831       C  0.65329715  0.13978961  0.16812248    -0.10200
C1832       C  0.68118413  0.15062119  0.14063823     0.06000
C1833       C  0.69120735  0.17871736  0.11422429    -0.04000
C1834       C  0.67229108  0.19279248  0.11244827    -0.08400
C1835       C  0.64270361  0.17999528  0.13632718     0.05100
C1836       C  0.63476501  0.15438991  0.16715850    -0.03500
Br1837     Br  0.60212346  0.13977687  0.21377382    -0.03200
H1838       H  0.64550816  0.12044846  0.19173775     0.09000
H1839       H  0.68103515  0.21425993  0.09181581     0.07000
Br1840     Br  0.73046789  0.19942379  0.07885289    -0.03600
O1841       O  0.62315948  0.29114177  0.68618552    -0.82900
C1842       C  0.72516033  0.36498465  0.81169542     0.96500
O1843       O  0.71978023  0.34251361  0.78520142    -0.72000
O1844       O  0.66632526  0.28691728  0.79396896    -0.75600
Al1845     Al  0.68821341  0.31510153  0.74478516     1.49000
C1846       C  0.63638791  0.26745022  0.79578782     0.91700
O1847       O  0.61586594  0.32689280  0.79816242    -0.81800
O1848       O  0.66960929  0.38363812  0.70268878    -0.75400
Al1849     Al  0.62290922  0.31106765  0.74301210     1.90100
O1850       O  0.65367271  0.37785539  0.79221636    -0.74400
O1851       O  0.72507978  0.38738494  0.72011048    -0.74300
O1852       O  0.70781522  0.37735160  0.81070108    -0.79900
O1853       O  0.71237671  0.34004469  0.69448762    -0.78100
O1854       O  0.66579849  0.33449595  0.74819027    -1.14300
O1855       O  0.66193604  0.28335065  0.70414943    -0.73500
C1856       C  0.63775068  0.27606501  0.68096557     0.97200
C1857       C  0.62676053  0.35608182  0.80788088     0.93600
Al1858     Al  0.68686879  0.37757493  0.75571378     1.55600
O1859       O  0.61731496  0.27398966  0.77643507    -0.78100
C1860       C  0.73144726  0.36996515  0.69559291     0.97800
C1861       C  0.64019385  0.37071890  0.69375198     0.92700
O1862       O  0.61974042  0.34309251  0.70888310    -0.83400
C1863       C  0.69871663  0.13163622  0.63718973     0.85400
C1864       C  0.70051509  0.12235070  0.58790101    -0.54800
C1865       C  0.71663723  0.10653183  0.58166606     0.08300
C1866       C  0.72842976  0.09972667  0.62598537     0.19300
C1867       C  0.68378174  0.09953893  0.66396093    -0.55500
C1868       C  0.69732102  0.08144910  0.65545097     0.08400
C1869       C  0.73356622  0.14974343  0.65310409    -0.55100
C1870       C  0.74913220  0.13295355  0.64895857     0.09000
H1871       H  0.68987428  0.12793923  0.55992287     0.13500
H1872       H  0.74148922  0.08688491  0.62013763    -0.00700
H1873       H  0.66456077  0.09131242  0.68817232     0.13800
H1874       H  0.74366635  0.17237810  0.67099373     0.13600
C1875       C  0.86286828  0.29929629  0.85554540     0.85400
C1876       C  0.86709787  0.29457210  0.90588199    -0.54800
C1877       C  0.88193825  0.27778867  0.91399158     0.08300
C1878       C  0.89326126  0.26864953  0.87077750     0.19300
C1879       C  0.89731306  0.31581317  0.83540561    -0.55500
C1880       C  0.91398610  0.30107201  0.84533274     0.08400
C1881       C  0.84645595  0.26554689  0.83558984    -0.55100
C1882       C  0.86247150  0.24955111  0.84250193     0.09000
H1883       H  0.85917915  0.30398274  0.93316371     0.13500
H1884       H  0.90575124  0.25541517  0.87785145    -0.00700
H1885       H  0.90853385  0.33777116  0.81571631     0.13800
H1886       H  0.82550802  0.25632460  0.81430188     0.13600
C1887       C  0.68607419  0.10901458  0.83865352     0.85400
C1888       C  0.71499233  0.12075911  0.80740376    -0.54800
C1889       C  0.73366337  0.10780835  0.81477069     0.08300
C1890       C  0.71857170  0.07990376  0.85062807     0.19300
C1891       C  0.66675191  0.07265193  0.82887771    -0.55500
C1892       C  0.68319021  0.05682496  0.83554676     0.08400
C1893       C  0.69827514  0.11121868  0.88667522    -0.55100
C1894       C  0.71449265  0.09562227  0.89360778     0.09000
H1895       H  0.72052160  0.13869701  0.78121564     0.13500
H1896       H  0.73255163  0.06804987  0.85658462    -0.00700
H1897       H  0.64184131  0.06006942  0.81870727     0.13800
H1898       H  0.69260927  0.12252043  0.91403663     0.13600
C1899       C  0.55424033  0.36307417  0.83973525     0.85400
C1900       C  0.55828563  0.36046658  0.89025768    -0.54800
C1901       C  0.58897900  0.37706059  0.90509354     0.08300
C1902       C  0.61424792  0.39248890  0.86571877     0.19300
C1903       C  0.57428754  0.39960784  0.82794556    -0.55500
C1904       C  0.60536030  0.41533771  0.84241531     0.08400
C1905       C  0.57380293  0.35020618  0.81756868    -0.55100
C1906       C  0.60500648  0.36475141  0.83119290     0.09000
H1907       H  0.53779663  0.34637691  0.91273897     0.13500
H1908       H  0.63959065  0.40489038  0.87675139    -0.00700
H1909       H  0.56479106  0.41232485  0.80992500     0.13800
H1910       H  0.56460334  0.33247608  0.79103684     0.13600
C1911       C  0.63096753  0.44058503  0.65663200     0.85400
C1912       C  0.63226397  0.43358072  0.60635244    -0.54800
C1913       C  0.61718769  0.40173651  0.59605785     0.08300
C1914       C  0.60172023  0.37908008  0.63736160     0.19300
C1915       C  0.59479056  0.42109394  0.66978873    -0.55500
C1916       C  0.57899345  0.38921623  0.65864180     0.08400
C1917       C  0.64420616  0.42247449  0.68140246    -0.55100
C1918       C  0.62973006  0.39063211  0.67092541     0.09000
H1919       H  0.64237152  0.45236406  0.58045868     0.13500
H1920       H  0.58974922  0.35326143  0.62847761    -0.00700
H1921       H  0.58195059  0.43111095  0.68645203     0.13800
H1922       H  0.66291408  0.43366543  0.70646609     0.13600
C1923       C  0.88556344  0.31579329  0.66140045     0.85400
C1924       C  0.87445282  0.28607452  0.69074438    -0.54800
C1925       C  0.88790171  0.26810726  0.68035431     0.08300
C1926       C  0.91522696  0.28448345  0.64358072     0.19300
C1927       C  0.92175607  0.33520275  0.67060736    -0.55500
C1928       C  0.93798508  0.31979030  0.65987734     0.08400
C1929       C  0.88287418  0.30470007  0.61241060    -0.55100
C1930       C  0.89842259  0.28877942  0.60254333     0.09000
H1931       H  0.85735028  0.27979149  0.71852515     0.13500
H1932       H  0.92743364  0.27103546  0.63549472    -0.00700
H1933       H  0.93356187  0.35915394  0.68476430     0.13800
H1934       H  0.86987815  0.30953549  0.58703191     0.13600
C1935       C  0.81314666  0.38317168  0.65859251     0.85400
C1936       C  0.80741301  0.38708519  0.60878941    -0.54800
C1937       C  0.79135542  0.40279098  0.60206620     0.08300
C1938       C  0.78257176  0.41378607  0.64552932     0.19300
C1939       C  0.82977286  0.41706964  0.67835170    -0.55500
C1940       C  0.81516277  0.43433275  0.66990464     0.08400
C1941       C  0.77963387  0.36701434  0.68113481    -0.55100
C1942       C  0.76349817  0.38278273  0.67432274     0.09000
H1943       H  0.81499438  0.37772178  0.58104645     0.13500
H1944       H  0.76881806  0.42528809  0.63735732    -0.00700
H1945       H  0.85199090  0.42667103  0.69623148     0.13800
H1946       H  0.76965279  0.34592018  0.70289086     0.13600
C1947       C  0.62145002  0.18483411  0.83535414     0.85400
C1948       C  0.62080697  0.19383531  0.88471878    -0.54800
C1949       C  0.60758517  0.21231348  0.89154977     0.08300
C1950       C  0.59448081  0.21911270  0.84906454     0.19300
C1951       C  0.58655436  0.16876590  0.81970495    -0.55500
C1952       C  0.57164705  0.18567149  0.82860664     0.08400
C1953       C  0.63804883  0.21752428  0.80962107    -0.55100
C1954       C  0.62396889  0.23548370  0.81710825     0.09000
H1955       H  0.63118115  0.18721778  0.91192595     0.13500
H1956       H  0.58370687  0.23389438  0.85659342    -0.00700
H1957       H  0.57399562  0.14516175  0.80448627     0.13800
H1958       H  0.65854255  0.22564886  0.78678114     0.13600
C1959       C  0.93027876  0.11843763  0.83948763     0.85400
C1960       C  0.92456112  0.12293157  0.88896130    -0.54800
C1961       C  0.89324503  0.11111445  0.90184454     0.08300
C1962       C  0.86954602  0.09458142  0.86263696     0.19300
C1963       C  0.90877033  0.08197830  0.83188082    -0.55500
C1964       C  0.87726275  0.06908017  0.84534467     0.08400
C1965       C  0.91337339  0.13261880  0.81287996    -0.55100
C1966       C  0.88200114  0.12067522  0.82502500     0.09000
H1967       H  0.94434189  0.13419382  0.91242349     0.13500
H1968       H  0.84395189  0.08495879  0.87157214    -0.00700
H1969       H  0.91773886  0.06717396  0.81879207     0.13800
H1970       H  0.92453701  0.14994695  0.78537251     0.13600
C1971       C  0.80314639  0.37856864  0.86052102     0.85400
C1972       C  0.77214662  0.36321709  0.83480471    -0.54800
C1973       C  0.75403183  0.37706067  0.84008897     0.08300
C1974       C  0.76934663  0.40640819  0.87211037     0.19300
C1975       C  0.82110202  0.41448003  0.84674084    -0.55500
C1976       C  0.80355291  0.42921186  0.85244310     0.08400
C1977       C  0.79319872  0.37916804  0.90977325    -0.55100
C1978       C  0.77583220  0.39372547  0.91620768     0.09000
H1979       H  0.76550971  0.34278446  0.81295128     0.13500
H1980       H  0.75497877  0.41797463  0.87755795    -0.00700
H1981       H  0.84664065  0.42846997  0.83947192     0.13800
H1982       H  0.80149933  0.37105407  0.93792126     0.13600
C1983       C  0.88736153  0.07507582  0.66130183     0.85400
C1984       C  0.88328699  0.07777156  0.61040173    -0.54800
C1985       C  0.89379952  0.10816129  0.59428794     0.08300
C1986       C  0.90909237  0.13392481  0.63136725     0.19300
C1987       C  0.92323172  0.09834576  0.66962824    -0.55500
C1988       C  0.93510044  0.12858059  0.65199800     0.08400
C1989       C  0.87188498  0.09212416  0.68393878    -0.55100
C1990       C  0.88260609  0.12229766  0.66801772     0.09000
H1991       H  0.87263170  0.05672759  0.58890978     0.13500
H1992       H  0.91762715  0.15893101  0.62061340    -0.00700
H1993       H  0.93876248  0.09249614  0.68741105     0.13800
H1994       H  0.85422706  0.08152111  0.71148999     0.13600
C1995       C  0.62364187  0.19735555  0.63084700     0.85400
C1996       C  0.63953075  0.22863434  0.65688474    -0.54800
C1997       C  0.62618676  0.24733294  0.65188648     0.08300
C1998       C  0.59737048  0.23271252  0.61953115     0.19300
C1999       C  0.58780040  0.18039538  0.64455133    -0.55500
C2000       C  0.57383030  0.19865112  0.63897050     0.08400
C2001       C  0.62348879  0.20741243  0.58179794    -0.55100
C2002       C  0.61025218  0.22600633  0.57553675     0.09000
H2003       H  0.65950810  0.23480773  0.67909767     0.13500
H2004       H  0.58678040  0.24785651  0.61376596    -0.00700
H2005       H  0.57335093  0.15496868  0.65225374     0.13800
H2006       H  0.63256454  0.19980183  0.55365988     0.13600
O2007       O  0.88610800  0.21889231  0.70340913    -0.82900
C2008       C  0.76593863  0.12411851  0.79180676     0.96500
O2009       O  0.77481146  0.15101801  0.77333092    -0.72000
O2010       O  0.82568684  0.20204589  0.80478979    -0.75600
Al2011     Al  0.81232779  0.18549546  0.74607402     1.49000
C2012       C  0.85461556  0.22123938  0.81472946     0.91700
O2013       O  0.87499745  0.16339615  0.80340570    -0.81800
O2014       O  0.83913547  0.12794893  0.68673221    -0.75400
Al2015     Al  0.87725342  0.18905594  0.75325504     1.90100
O2016       O  0.84076596  0.11556173  0.77677999    -0.74400
O2017       O  0.78118147  0.12081556  0.69652313    -0.74300
O2018       O  0.78373957  0.11229130  0.78883606    -0.79900
O2019       O  0.79606325  0.17142896  0.68711069    -0.78100
O2020       O  0.83434702  0.16583088  0.74585659    -1.14300
O2021       O  0.84517167  0.22437983  0.71917910    -0.73500
C2022       C  0.87265708  0.23523184  0.70124365     0.97200
C2023       C  0.86379733  0.13342190  0.80240128     0.93600
Al2024     Al  0.81332034  0.12297076  0.73786611     1.55600
O2025       O  0.87697227  0.21925483  0.79562488    -0.78100
C2026       C  0.77776786  0.14220886  0.67726397     0.97800
C2027       C  0.86919221  0.14040554  0.68778555     0.92700
O2028       O  0.88641664  0.16372274  0.71325927    -0.83400
C2029       C  0.98792421  0.18008787  0.66282773    -0.10200
C2030       C  0.97020044  0.14950013  0.64355357     0.06000
C2031       C  0.98665691  0.13748164  0.61873973    -0.04000
C2032       C  0.51992987  0.15358713  0.61887307    -0.08400
C2033       C  0.53810727  0.18332707  0.64033201     0.05100
C2034       C  0.52170294  0.19751322  0.66001399    -0.03500
Br2035     Br  0.54376839  0.24020969  0.68309251    -0.03200
H2036       H  0.97551680  0.19016928  0.68053383     0.09000
H2037       H  0.53182894  0.14337235  0.60017983     0.07000
Br2038     Br  0.96498811  0.10020265  0.58117324    -0.03600
C2039       C  0.90867341  0.14162248  0.97334922    -0.10200
C2040       C  0.88562172  0.11418307  0.95011957     0.06000
C2041       C  0.86090006  0.08862134  0.97583987    -0.04000
C2042       C  0.86236160  0.08907407  0.52319921    -0.08400
C2043       C  0.88918691  0.11369967  0.54583130     0.05100
C2044       C  0.91184985  0.14080636  0.52019327    -0.03500
Br2045     Br  0.95123867  0.17554140  0.54314065    -0.03200
H2046       H  0.92692521  0.16235175  0.95438371     0.09000
H2047       H  0.84343433  0.06888152  0.54216696     0.07000
Br2048     Br  0.82653535  0.04994451  0.95049641    -0.03600
C2049       C  0.82698087  0.01643419  0.82629979    -0.10200
C2050       C  0.85547899  0.03350676  0.85089525     0.06000
C2051       C  0.86390150  0.01595729  0.87981213    -0.04000
C2052       C  0.84727184  0.48238261  0.87831327    -0.08400
C2053       C  0.81969568  0.46506776  0.85236430     0.05100
C2054       C  0.80837319  0.48233937  0.82835360    -0.03500
Br2055     Br  0.76793309  0.46062345  0.79883519    -0.03200
H2056       H  0.81914789  0.02943517  0.80552075     0.09000
H2057       H  0.85548955  0.46971828  0.89906697     0.07000
Br2058     Br  0.89425266  0.03568892  0.92719749    -0.03600
C2059       C  0.63756558  0.25129666  0.50398784    -0.09200
C2060       C  0.60858316  0.23632298  0.52903214     0.06000
C2061       C  0.57936247  0.22148206  0.50544434    -0.04000
C2062       C  0.57949684  0.21644241  0.95893037    -0.08400
C2063       C  0.60839330  0.22631135  0.93577777     0.05100
C2064       C  0.63770772  0.24594183  0.95751177    -0.03500
Br2065     Br  0.67837264  0.26282787  0.92652527    -0.03200
H2066       H  0.66025373  0.26342949  0.52142690     0.09000
H2067       H  0.55688365  0.20237123  0.94170026     0.07000
Br2068     Br  0.53844021  0.20449406  0.53443097    -0.03600
C2069       C  0.51796950  0.13752927  0.84461526    -0.10200
C2070       C  0.53574919  0.16922597  0.82822895     0.06000
C2071       C  0.51874975  0.18398685  0.81460485    -0.04000
C2072       C  0.98500129  0.16657194  0.81548175    -0.08400
C2073       C  0.96680381  0.13414064  0.83065439     0.05100
C2074       C  0.98450933  0.12046122  0.84718672    -0.03500
Br2075     Br  0.96662027  0.08012181  0.87833664    -0.03200
H2076       H  0.53033891  0.12625558  0.85817427     0.09000
H2077       H  0.97343832  0.17969317  0.80671703     0.07000
Br2078     Br  0.53958310  0.22812644  0.79653491    -0.03600
C2079       C  0.86717947  0.48731352  0.67392445    -0.10200
C2080       C  0.83322855  0.47037300  0.67536437     0.06000
C2081       C  0.81841194  0.48877437  0.67816372    -0.04000
C2082       C  0.83701571  0.02220101  0.67677618    -0.08400
C2083       C  0.87097093  0.03933682  0.67468902     0.05100
C2084       C  0.88598076  0.02083596  0.67408235    -0.03500
Br2085     Br  0.93134746  0.03714627  0.67014634    -0.03200
H2086       H  0.87984537  0.47479312  0.67019421     0.09000
H2087       H  0.82418077  0.03480409  0.67494513     0.07000
Br2088     Br  0.77324109  0.47153078  0.68491126    -0.03600
C2089       C  0.80036799  0.42950220  0.98096908    -0.10200
C2090       C  0.77285197  0.40326404  0.96254860     0.06000
C2091       C  0.74829600  0.38105975  0.99185734    -0.04000
C2092       C  0.75329244  0.38337966  0.53866985    -0.08400
C2093       C  0.78262301  0.40731950  0.55632066     0.05100
C2094       C  0.80568578  0.43154454  0.52749653    -0.03500
Br2095     Br  0.84617550  0.46518690  0.54956091    -0.03200
H2096       H  0.81960456  0.44650417  0.95888437     0.09000
H2097       H  0.73538956  0.36471782  0.56078220     0.07000
Br2098     Br  0.70993866  0.34514266  0.96881432    -0.03600
C2099       C  0.88210134  0.36564335  0.65391187    -0.10200
C2100       C  0.86691072  0.33317935  0.66771545     0.06000
C2101       C  0.83298903  0.31662305  0.67496486    -0.04000
C2102       C  0.81682234  0.33350899  0.67507506    -0.08400
C2103       C  0.83239522  0.36632817  0.66327295     0.05100
C2104       C  0.86521668  0.38167681  0.64979219    -0.03500
Br2105     Br  0.88796422  0.42295777  0.61969596    -0.03200
H2106       H  0.90689457  0.37814307  0.64247110     0.09000
H2107       H  0.79116586  0.31960219  0.68008401     0.07000
Br2108     Br  0.80491894  0.27048975  0.67674845    -0.03600
C2109       C  0.52674346  0.38483481  0.64255667    -0.10200
C2110       C  0.54280309  0.36976717  0.65872492     0.06000
C2111       C  0.52393218  0.33763647  0.67448083    -0.04000
C2112       C  0.99010788  0.32175022  0.67456046    -0.08400
C2113       C  0.97415728  0.33726109  0.65932212     0.05100
C2114       C  0.99328200  0.36934764  0.64269298    -0.03500
Br2115     Br  0.97631016  0.39333138  0.61502319    -0.03200
H2116       H  0.54050086  0.40906932  0.62879761     0.09000
H2117       H  0.97615911  0.29728280  0.68739635     0.07000
Br2118     Br  0.54280529  0.31482703  0.69863706    -0.03600
C2119       C  0.62258693  0.38260879  0.97241625    -0.10200
C2120       C  0.59566027  0.38224770  0.95472470     0.06000
C2121       C  0.57530980  0.38673369  0.98528494    -0.04000
C2122       C  0.58208233  0.39077388  0.53156628    -0.08400
C2123       C  0.60899693  0.39151654  0.54865434     0.05100
C2124       C  0.62936888  0.38718935  0.51908126    -0.03500
Br2125     Br  0.66674702  0.38807965  0.54092401    -0.03200
H2126       H  0.63839891  0.37913137  0.95014728     0.09000
H2127       H  0.56688831  0.39502155  0.55411848     0.07000
Br2128     Br  0.53923563  0.39053699  0.96855304    -0.03600
C2129       C  0.67042351  0.17937143  0.82584922    -0.10200
C2130       C  0.63689366  0.16400637  0.83161081     0.06000
C2131       C  0.62036965  0.13082702  0.84430932    -0.04000
C2132       C  0.63609693  0.11339872  0.84290389    -0.08400
C2133       C  0.66925705  0.12843714  0.83401788     0.05100
C2134       C  0.68667612  0.16261219  0.82949795    -0.03500
Br2135     Br  0.73262694  0.18944858  0.83520205    -0.03200
H2136       H  0.68477363  0.20527049  0.82262285     0.09000
H2137       H  0.62255477  0.08829079  0.85280997     0.07000
Br2138     Br  0.57813013  0.10812037  0.87163185    -0.03600
C2139       C  0.63513604  0.00469091  0.85985765    -0.10200
C2140       C  0.66529314  0.02051554  0.83775665     0.06000
C2141       C  0.67630370  0.00126980  0.81807523    -0.04000
C2142       C  0.65701138  0.46709345  0.82022305    -0.08400
C2143       C  0.62630828  0.45150978  0.84123325     0.05100
C2144       C  0.61560098  0.47097360  0.86075157    -0.03500
Br2145     Br  0.57492099  0.45384158  0.89131341    -0.03200
H2146       H  0.62625973  0.01863249  0.87616763     0.09000
H2147       H  0.66567323  0.45276402  0.80456422     0.07000
Br2148     Br  0.71608107  0.01999784  0.78453901    -0.03600
C2149       C  0.91906309  0.29210918  0.97808635    -0.10200
C2150       C  0.88830930  0.27214935  0.96090715     0.06000
C2151       C  0.86284381  0.25240553  0.99105174    -0.04000
C2152       C  0.86783904  0.25518843  0.53809640    -0.08400
C2153       C  0.89787447  0.27772324  0.55556758     0.05100
C2154       C  0.92396545  0.29529874  0.52507626    -0.03500
Br2155     Br  0.96582413  0.32687473  0.54470934    -0.03200
H2156       H  0.93876450  0.30761973  0.95520191     0.09000
H2157       H  0.84746183  0.24170354  0.56096664     0.07000
Br2158     Br  0.82018516  0.22388976  0.97043393    -0.03600
C2159       C  0.96355764  0.29869083  0.82935572    -0.10200
C2160       C  0.94960537  0.31729944  0.83781149     0.06000
C2161       C  0.97039848  0.35086900  0.84332311    -0.04000
C2162       C  0.50348349  0.36474197  0.83805527    -0.08400
C2163       C  0.51801349  0.34643782  0.83019868     0.05100
C2164       C  0.49706303  0.31241758  0.82815325    -0.03500
Br2165     Br  0.51112759  0.28211447  0.83089521    -0.03200
H2166       H  0.94832296  0.27284082  0.82654324     0.09000
H2167       H  0.51799315  0.39007134  0.84535355     0.07000
Br2168     Br  0.95727316  0.37943173  0.86688420    -0.03600
C2169       C  0.85700081  0.34501025  0.82162709    -0.10200
C2170       C  0.84470054  0.31720913  0.84925371     0.06000
C2171       C  0.81580779  0.30759438  0.87350092    -0.04000
C2172       C  0.80387565  0.32821249  0.87643649    -0.08400
C2173       C  0.81907982  0.35847881  0.85437334     0.05100
C2174       C  0.84428070  0.36515527  0.82318780    -0.03500
Br2175     Br  0.86053536  0.39805910  0.77726042    -0.03200
H2176       H  0.87594257  0.35109832  0.79710641     0.09000
H2177       H  0.78206194  0.32024140  0.89622094     0.07000
Br2178     Br  0.79090189  0.26661319  0.90358613    -0.03600
C2179       C  0.63122674  0.49271135  0.66703431    -0.10200
C2180       C  0.64876505  0.47708727  0.66481780     0.06000
C2181       C  0.68275509  0.49688224  0.66208692    -0.04000
C2182       C  0.69736659  0.03029028  0.66533900    -0.08400
C2183       C  0.67967393  0.04573911  0.66428057     0.05100
C2184       C  0.64550349  0.02592887  0.66420952    -0.03500
Br2185     Br  0.61561154  0.04022684  0.65440740    -0.03200
H2186       H  0.60536578  0.47925212  0.66475259     0.09000
H2187       H  0.72338129  0.04438019  0.66514354     0.07000
Br2188     Br  0.71046922  0.48084453  0.64759293    -0.03600
C2189       C  0.69453860  0.06752059  0.96715433    -0.10200
C2190       C  0.72082687  0.09018221  0.94074576     0.06000
C2191       C  0.74868571  0.11349689  0.96258590    -0.04000
C2192       C  0.74832276  0.11647488  0.50989825    -0.08400
C2193       C  0.72043366  0.09625892  0.53573052     0.05100
C2194       C  0.69402437  0.07047077  0.51410602    -0.03500
Br2195     Br  0.65541019  0.04079836  0.54646398    -0.03200
H2196       H  0.67287852  0.04946946  0.95071624     0.09000
H2197       H  0.76892251  0.13629547  0.52597314     0.07000
Br2198     Br  0.78601600  0.14341270  0.92795940    -0.03600
C2199       C  0.65317690  0.13975195  0.66836371    -0.10200
C2200       C  0.68098932  0.15050481  0.64074537     0.06000
C2201       C  0.69099340  0.17857169  0.61428406    -0.04000
C2202       C  0.67204450  0.19260405  0.61243609    -0.08400
C2203       C  0.64246213  0.17980732  0.63632936     0.05100
C2204       C  0.63458269  0.15428088  0.66728061    -0.03500
Br2205     Br  0.60190115  0.13964948  0.71383414    -0.03200
H2206       H  0.64553618  0.12057280  0.69221403     0.09000
H2207       H  0.68077134  0.21405036  0.59176617     0.07000
Br2208     Br  0.73030758  0.19933362  0.57903730    -0.03600
O2209       O  0.62321200  0.79117295  0.18613148    -0.82900
C2210       C  0.72516228  0.86500527  0.31168176     0.96500
O2211       O  0.71976585  0.84251509  0.28522196    -0.72000
O2212       O  0.66631549  0.78694047  0.29400788    -0.75600
Al2213     Al  0.68821969  0.81510432  0.24481337     1.49000
C2214       C  0.63638040  0.76746694  0.29579836     0.91700
O2215       O  0.61587270  0.82691490  0.29808970    -0.81800
O2216       O  0.66965285  0.88364052  0.20261924    -0.75400
Al2217     Al  0.62293001  0.81108525  0.24295541     1.90100
O2218       O  0.65369126  0.87787638  0.29213610    -0.74400
O2219       O  0.72509521  0.88738546  0.22009686    -0.74300
O2220       O  0.70782576  0.87738105  0.31067353    -0.79900
O2221       O  0.71240394  0.84003531  0.19452281    -0.78100
O2222       O  0.66581523  0.83450840  0.24816863    -1.14300
O2223       O  0.66195606  0.78335148  0.20417597    -0.73500
C2224       C  0.63780228  0.77609356  0.18093458     0.97200
C2225       C  0.62677493  0.85610855  0.30779228     0.93600
Al2226     Al  0.68688957  0.87758879  0.25567001     1.55600
O2227       O  0.61731420  0.77399529  0.27639483    -0.78100
C2228       C  0.73146328  0.86995964  0.19560019     0.97800
C2229       C  0.64024077  0.87073965  0.19368530     0.92700
O2230       O  0.61977671  0.84311687  0.20881485    -0.83400
C2231       C  0.69878558  0.63166259  0.13703241     0.85400
C2232       C  0.70058327  0.62234572  0.08775898    -0.54800
C2233       C  0.71670356  0.60651890  0.08156273     0.08300
C2234       C  0.72849200  0.59973826  0.12591190     0.19300
C2235       C  0.68386218  0.59959202  0.16386525    -0.55500
C2236       C  0.69738958  0.58148856  0.15539956     0.08400
C2237       C  0.73363470  0.64977995  0.15293808    -0.55100
C2238       C  0.74919665  0.63298310  0.14884735     0.09000
H2239       H  0.68995514  0.62793188  0.05976214     0.13500
H2240       H  0.74154957  0.58689161  0.12009788    -0.00700
H2241       H  0.66471975  0.59142788  0.18815996     0.13800
H2242       H  0.74372936  0.67242029  0.17081159     0.13600
C2243       C  0.86282133  0.79924725  0.35563643     0.85400
C2244       C  0.86702625  0.79453388  0.40598699    -0.54800
C2245       C  0.88186171  0.77775134  0.41414690     0.08300
C2246       C  0.89318890  0.76858471  0.37095249     0.19300
C2247       C  0.89727336  0.81574521  0.33552489    -0.55500
C2248       C  0.91393403  0.80099741  0.34549774     0.08400
C2249       C  0.84640902  0.76549546  0.33569910    -0.55100
C2250       C  0.86241302  0.74949196  0.34263663     0.09000
H2251       H  0.85910666  0.80396489  0.43324105     0.13500
H2252       H  0.90566624  0.75534306  0.37806157    -0.00700
H2253       H  0.90850601  0.83769926  0.31580344     0.13800
H2254       H  0.82548080  0.75628622  0.31437252     0.13600
C2255       C  0.68600078  0.60898059  0.33862930     0.85400
C2256       C  0.71493284  0.62074811  0.30739318    -0.54800
C2257       C  0.73361793  0.60781319  0.31477022     0.08300
C2258       C  0.71853431  0.57991174  0.35063598     0.19300
C2259       C  0.66669670  0.57261052  0.32887047    -0.55500
C2260       C  0.68315710  0.55680659  0.33555385     0.08400
C2261       C  0.69819615  0.61120065  0.38665100    -0.55100
C2262       C  0.71443468  0.59563059  0.39360160     0.09000
H2263       H  0.72047406  0.63871147  0.28123833     0.13500
H2264       H  0.73252815  0.56807419  0.35660805    -0.00700
H2265       H  0.64178184  0.56000241  0.31871907     0.13800
H2266       H  0.69250823  0.62249118  0.41400460     0.13600
C2267       C  0.55427108  0.86313291  0.33959874     0.85400
C2268       C  0.55826114  0.86039820  0.39010243    -0.54800
C2269       C  0.58893537  0.87695051  0.40500894     0.08300
C2270       C  0.61424911  0.89246194  0.36570219     0.19300
C2271       C  0.57434198  0.89969666  0.32798478    -0.55500
C2272       C  0.60540608  0.91537750  0.34249879     0.08400
C2273       C  0.57384591  0.85030494  0.31736399    -0.55100
C2274       C  0.60502721  0.86479604  0.33106244     0.09000
H2275       H  0.53774881  0.84624499  0.41251818     0.13500
H2276       H  0.63957888  0.90482374  0.37678510    -0.00700
H2277       H  0.56487395  0.91246706  0.31003625     0.13800
H2278       H  0.56466194  0.83261674  0.29077994     0.13600
C2279       C  0.63102944  0.94065723  0.15682700     0.85400
C2280       C  0.63234258  0.93374348  0.10651368    -0.54800
C2281       C  0.61727841  0.90192027  0.09610333     0.08300
C2282       C  0.60180121  0.87918824  0.13733693     0.19300
C2283       C  0.59484484  0.92113868  0.16995811    -0.55500
C2284       C  0.57906175  0.88927747  0.15870321     0.08400
C2285       C  0.64426483  0.92250905  0.18149911    -0.55100
C2286       C  0.62979704  0.89068551  0.17091125     0.09000
H2287       H  0.64246267  0.95257167  0.08068709     0.13500
H2288       H  0.58983692  0.85338499  0.12836286    -0.00700
H2289       H  0.58200231  0.93110067  0.18667671     0.13800
H2290       H  0.66295658  0.93365718  0.20658676     0.13600
C2291       C  0.88552086  0.81577848  0.16125289     0.85400
C2292       C  0.87441304  0.78608007  0.19064239    -0.54800
C2293       C  0.88785901  0.76810600  0.18029184     0.08300
C2294       C  0.91517765  0.78445678  0.14350491     0.19300
C2295       C  0.92171289  0.83519554  0.17044625    -0.55500
C2296       C  0.93793931  0.81977582  0.15975317     0.08400
C2297       C  0.88282096  0.80465251  0.11228110    -0.55100
C2298       C  0.89836726  0.78872491  0.10245406     0.09000
H2299       H  0.85732070  0.77981932  0.21843075     0.13500
H2300       H  0.92738230  0.77100300  0.13544551    -0.00700
H2301       H  0.93351516  0.85915317  0.18458066     0.13800
H2302       H  0.86982539  0.80947461  0.08688508     0.13600
C2303       C  0.81314571  0.88317939  0.15853664     0.85400
C2304       C  0.80737890  0.88707160  0.10874109    -0.54800
C2305       C  0.79132610  0.90278220  0.10203501     0.08300
C2306       C  0.78255701  0.91377934  0.14550274     0.19300
C2307       C  0.82978823  0.91708683  0.17826348    -0.55500
C2308       C  0.81516018  0.93433460  0.16983743     0.08400
C2309       C  0.77964998  0.86702921  0.18112429    -0.55100
C2310       C  0.76350489  0.88278438  0.17431449     0.09000
H2311       H  0.81495226  0.87770829  0.08098863     0.13500
H2312       H  0.76879691  0.92527640  0.13733964    -0.00700
H2313       H  0.85204731  0.92672284  0.19608592     0.13800
H2314       H  0.76968371  0.84595058  0.20290876     0.13600
C2315       C  0.62143305  0.68484890  0.33538956     0.85400
C2316       C  0.62080610  0.69385359  0.38475576    -0.54800
C2317       C  0.60760240  0.71234666  0.39159794     0.08300
C2318       C  0.59448936  0.71914895  0.34912187     0.19300
C2319       C  0.58654044  0.66879689  0.31974811    -0.55500
C2320       C  0.57164515  0.68570913  0.32867319     0.08400
C2321       C  0.63803850  0.71753861  0.30965428    -0.55100
C2322       C  0.62396560  0.73550673  0.31714252     0.09000
H2323       H  0.63117384  0.68722290  0.41195648     0.13500
H2324       H  0.58372182  0.73393623  0.35665546    -0.00700
H2325       H  0.57397537  0.64520119  0.30450419     0.13800
H2326       H  0.65853135  0.72565252  0.28681497     0.13600
C2327       C  0.93027840  0.61843708  0.33944807     0.85400
C2328       C  0.92458295  0.62292512  0.38893643    -0.54800
C2329       C  0.89327396  0.61111631  0.40185086     0.08300
C2330       C  0.86955551  0.59460091  0.36265025     0.19300
C2331       C  0.90874960  0.58198054  0.33182450    -0.55500
C2332       C  0.87724678  0.56909042  0.34531054     0.08400
C2333       C  0.91337600  0.63264019  0.31288148    -0.55100
C2334       C  0.88200759  0.62070534  0.32504672     0.09000
H2335       H  0.94437242  0.63417970  0.41238547     0.13500
H2336       H  0.84396626  0.58498557  0.37161192    -0.00700
H2337       H  0.91770501  0.56717063  0.31871300     0.13800
H2338       H  0.92453373  0.64996802  0.28537309     0.13600
C2339       C  0.80313955  0.87855878  0.36047313     0.85400
C2340       C  0.77214900  0.86323226  0.33474572    -0.54800
C2341       C  0.75404691  0.87708960  0.34003762     0.08300
C2342       C  0.76937211  0.90643502  0.37205576     0.19300
C2343       C  0.82111934  0.91447592  0.34670307    -0.55500
C2344       C  0.80358572  0.92922668  0.35239693     0.08400
C2345       C  0.79318172  0.87915517  0.40972022    -0.55100
C2346       C  0.77583315  0.89373277  0.41615007     0.09000
H2347       H  0.76550246  0.84279646  0.31289402     0.13500
H2348       H  0.75501425  0.91801196  0.37750369    -0.00700
H2349       H  0.84665720  0.92844942  0.33941853     0.13800
H2350       H  0.80146741  0.87102761  0.43787027     0.13600
C2351       C  0.88732539  0.57509216  0.16121337     0.85400
C2352       C  0.88325963  0.57779539  0.11031989    -0.54800
C2353       C  0.89377272  0.60818684  0.09422543     0.08300
C2354       C  0.90905928  0.63394637  0.13131016     0.19300
C2355       C  0.92318755  0.59835460  0.16956854    -0.55500
C2356       C  0.93505983  0.62859300  0.15194875     0.08400
C2357       C  0.87184306  0.59213473  0.18385779    -0.55100
C2358       C  0.88256718  0.62231323  0.16795570     0.09000
H2359       H  0.87260721  0.55675690  0.08881654     0.13500
H2360       H  0.91760230  0.65895420  0.12054441    -0.00700
H2361       H  0.93870400  0.59247321  0.18735027     0.13800
H2362       H  0.85420004  0.58153870  0.21142556     0.13600
C2363       C  0.62374443  0.69742625  0.13075389     0.85400
C2364       C  0.63963965  0.72871107  0.15677342    -0.54800
C2365       C  0.62627385  0.74739260  0.15180395     0.08300
C2366       C  0.59744308  0.73275897  0.11947058     0.19300
C2367       C  0.58791002  0.68046118  0.14449806    -0.55500
C2368       C  0.57392213  0.69870098  0.13893437     0.08400
C2369       C  0.62356560  0.70746992  0.08170659    -0.55100
C2370       C  0.61031130  0.72604953  0.07545914     0.09000
H2371       H  0.65962706  0.73489275  0.17897002     0.13500
H2372       H  0.58683831  0.74789198  0.11372287    -0.00700
H2373       H  0.57347215  0.65503642  0.15220804     0.13800
H2374       H  0.63264020  0.69986390  0.05356164     0.13600
O2375       O  0.88606811  0.71890220  0.20338463    -0.82900
C2376       C  0.76590207  0.62413414  0.29181735     0.96500
O2377       O  0.77476928  0.65102402  0.27331424    -0.72000
O2378       O  0.82565727  0.70203230  0.30481661    -0.75600
Al2379     Al  0.81230850  0.68550738  0.24608605     1.49000
C2380       C  0.85458360  0.72121838  0.31478337     0.91700
O2381       O  0.87502090  0.66342971  0.30337624    -0.81800
O2382       O  0.83909754  0.62793506  0.18677257    -0.75400
Al2383     Al  0.87723826  0.68907705  0.25323486     1.90100
O2384       O  0.84074586  0.61558183  0.27683390    -0.74400
O2385       O  0.78117255  0.62083161  0.19654372    -0.74300
O2386       O  0.78371825  0.61232229  0.28888218    -0.79900
O2387       O  0.79606999  0.67145051  0.18710808    -0.78100
O2388       O  0.83432939  0.66584454  0.24586976    -1.14300
O2389       O  0.84515443  0.72440904  0.21921485    -0.73500
C2390       C  0.87262466  0.73524750  0.20123557     0.97200
C2391       C  0.86380149  0.63345148  0.30241576     0.93600
Al2392     Al  0.81329801  0.62298392  0.23790779     1.55600
O2393       O  0.87695087  0.71926691  0.29563941    -0.78100
C2394       C  0.77778829  0.64223062  0.17724130     0.97800
C2395       C  0.86915792  0.64041505  0.18776558     0.92700
O2396       O  0.88639418  0.66374764  0.21321096    -0.83400
C2397       C  0.98788782  0.68007553  0.16279781    -0.10200
C2398       C  0.97015456  0.64949996  0.14350019     0.06000
C2399       C  0.98659595  0.63747812  0.11866050    -0.04000
C2400       C  0.52002364  0.65358802  0.11893884    -0.08400
C2401       C  0.53819359  0.68335280  0.14033711     0.05100
C2402       C  0.52177367  0.69752125  0.16002476    -0.03500
Br2403     Br  0.54382446  0.74021610  0.18311157    -0.03200
H2404       H  0.97548919  0.69016916  0.18049718     0.09000
H2405       H  0.53192785  0.64337357  0.10025849     0.07000
Br2406     Br  0.96491190  0.60029829  0.08091627    -0.03600
C2407       C  0.90872305  0.64162656  0.47337005    -0.10200
C2408       C  0.88567618  0.61417919  0.45014762     0.06000
C2409       C  0.86096941  0.58861547  0.47588146    -0.04000
C2410       C  0.86231733  0.58912492  0.02316264    -0.08400
C2411       C  0.88916300  0.61373057  0.04578064     0.05100
C2412       C  0.91185570  0.64081289  0.02013954    -0.03500
Br2413     Br  0.95130747  0.67545654  0.04307029    -0.03200
H2414       H  0.92696113  0.66235877  0.45439348     0.09000
H2415       H  0.84337932  0.56894719  0.04214001     0.07000
Br2416     Br  0.82659415  0.54994443  0.45054385    -0.03600
C2417       C  0.82696112  0.51643302  0.32625084    -0.10200
C2418       C  0.85545594  0.53351271  0.35085745     0.06000
C2419       C  0.86387287  0.51596466  0.37978714    -0.04000
C2420       C  0.84731605  0.98241309  0.37822057    -0.08400
C2421       C  0.81973742  0.96508825  0.35227992     0.05100
C2422       C  0.80840815  0.98235545  0.32826982    -0.03500
Br2423     Br  0.76794970  0.96062795  0.29880327    -0.03200
H2424       H  0.81913017  0.52942909  0.30545901     0.09000
H2425       H  0.85553790  0.96975691  0.39897522     0.07000
Br2426     Br  0.89422872  0.53570457  0.42716377    -0.03600
C2427       C  0.63758971  0.75137349  0.00389593    -0.09200
C2428       C  0.60861123  0.73634679  0.02895309     0.06000
C2429       C  0.57938535  0.72145012  0.00537493    -0.04000
C2430       C  0.57951048  0.71647254  0.45897188    -0.08400
C2431       C  0.60841088  0.72633094  0.43583698     0.05100
C2432       C  0.63772146  0.74592528  0.45760261    -0.03500
Br2433     Br  0.67839930  0.76279456  0.42666166    -0.03200
H2434       H  0.66028088  0.76354924  0.02132426     0.09000
H2435       H  0.55690167  0.70242676  0.44172190     0.07000
Br2436     Br  0.53845778  0.70439052  0.03437703    -0.03600
C2437       C  0.51798782  0.63757062  0.34473291    -0.10200
C2438       C  0.53575172  0.66926258  0.32833055     0.06000
C2439       C  0.51874305  0.68400891  0.31469507    -0.04000
C2440       C  0.98501273  0.66653620  0.31536217    -0.08400
C2441       C  0.96680096  0.63411627  0.33057634     0.05100
C2442       C  0.98449649  0.62041893  0.34708607    -0.03500
Br2443     Br  0.96659002  0.58008978  0.37826654    -0.03200
H2444       H  0.53036842  0.62631410  0.35831213     0.09000
H2445       H  0.97346382  0.67966824  0.30658916     0.07000
Br2446     Br  0.53956450  0.72814447  0.29660844    -0.03600
C2447       C  0.86716446  0.98732448  0.17357581    -0.10200
C2448       C  0.83322013  0.97037063  0.17524088     0.06000
C2449       C  0.81838848  0.98875142  0.17818933    -0.04000
C2450       C  0.83701832  0.52221777  0.17683480    -0.08400
C2451       C  0.87096672  0.53935866  0.17457948     0.05100
C2452       C  0.88598130  0.52086420  0.17370221    -0.03500
Br2453     Br  0.93133594  0.53720589  0.16919675    -0.03200
H2454       H  0.87983381  0.97479320  0.16966514     0.09000
H2455       H  0.82416340  0.53481471  0.17511445     0.07000
Br2456     Br  0.77321718  0.97148144  0.18497078    -0.03600
C2457       C  0.80042167  0.92950813  0.48088258    -0.10200
C2458       C  0.77287562  0.90329161  0.46248444     0.06000
C2459       C  0.74831349  0.88111244  0.49180698    -0.04000
C2460       C  0.75327357  0.88345213  0.03864146    -0.08400
C2461       C  0.78262132  0.90734841  0.05629573     0.05100
C2462       C  0.80572447  0.93154101  0.02747232    -0.03500
Br2463     Br  0.84624739  0.96512162  0.04954263    -0.03200
H2464       H  0.81964114  0.94648763  0.45879878     0.09000
H2465       H  0.73534124  0.86480917  0.06075781     0.07000
Br2466     Br  0.70987127  0.84528860  0.46877098    -0.03600
C2467       C  0.88206205  0.86561881  0.15364590    -0.10200
C2468       C  0.86688247  0.83317426  0.16754110     0.06000
C2469       C  0.83297341  0.81663267  0.17489071    -0.04000
C2470       C  0.81682324  0.83353017  0.17505747    -0.08400
C2471       C  0.83238875  0.86633544  0.16318074     0.05100
C2472       C  0.86518169  0.88165729  0.14956763    -0.03500
Br2473     Br  0.88787144  0.92289100  0.11933682    -0.03200
H2474       H  0.90683660  0.87809305  0.14211452     0.09000
H2475       H  0.79117392  0.81963111  0.18014972     0.07000
Br2476     Br  0.80488226  0.77050170  0.17668642    -0.03600
C2477       C  0.52678857  0.88487094  0.14272668    -0.10200
C2478       C  0.54287108  0.86980746  0.15881393     0.06000
C2479       C  0.52402052  0.83766282  0.17452553    -0.04000
C2480       C  0.99003911  0.82170769  0.17447782    -0.08400
C2481       C  0.97410976  0.83723638  0.15922422     0.05100
C2482       C  0.99325445  0.86932851  0.14262116    -0.03500
Br2483     Br  0.97632291  0.89335307  0.11495865    -0.03200
H2484       H  0.54053088  0.90911856  0.12900185     0.09000
H2485       H  0.97607541  0.79723976  0.18730323     0.07000
Br2486     Br  0.54292639  0.81484488  0.19853145    -0.03600
C2487       C  0.62249325  0.88241005  0.47234572    -0.10200
C2488       C  0.59555657  0.88203110  0.45465901     0.06000
C2489       C  0.57515788  0.88643510  0.48523379    -0.04000
C2490       C  0.58225825  0.89108810  0.03153167    -0.08400
C2491       C  0.60913928  0.89178040  0.04865807     0.05100
C2492       C  0.62950629  0.88742757  0.01910762    -0.03500
Br2493     Br  0.66687140  0.88830645  0.04098326    -0.03200
H2494       H  0.63833406  0.87898201  0.45006784     0.09000
H2495       H  0.56707384  0.89536579  0.05406128     0.07000
Br2496     Br  0.53906806  0.89022138  0.46852487    -0.03600
C2497       C  0.67039328  0.67936864  0.32598809    -0.10200
C2498       C  0.63685686  0.66400559  0.33162957     0.06000
C2499       C  0.62030218  0.63080448  0.34422332    -0.04000
C2500       C  0.63601264  0.61336016  0.34276780    -0.08400
C2501       C  0.66918622  0.62840481  0.33399813     0.05100
C2502       C  0.68662390  0.66258807  0.32963163    -0.03500
Br2503     Br  0.73255934  0.68938138  0.33555246    -0.03200
H2504       H  0.68475368  0.70527415  0.32286227     0.09000
H2505       H  0.62244612  0.58823512  0.35257976     0.07000
Br2506     Br  0.57805927  0.60808772  0.37153583    -0.03600
C2507       C  0.63516856  0.50466349  0.36002984    -0.10200
C2508       C  0.66528225  0.52049485  0.33780855     0.06000
C2509       C  0.67627372  0.50125256  0.31805744    -0.04000
C2510       C  0.65706198  0.96714757  0.32031015    -0.08400
C2511       C  0.62638804  0.95155167  0.34141446     0.05100
C2512       C  0.61572194  0.97100678  0.36107761    -0.03500
Br2513     Br  0.57510237  0.95384338  0.39181797    -0.03200
H2514       H  0.62631508  0.51860431  0.37640392     0.09000
H2515       H  0.66569932  0.95282704  0.30455542     0.07000
Br2516     Br  0.71603258  0.52000028  0.28447232    -0.03600
C2517       C  0.91902444  0.79216976  0.47823561    -0.10200
C2518       C  0.88826263  0.77217778  0.46108965     0.06000
C2519       C  0.86281825  0.75245104  0.49127578    -0.04000
C2520       C  0.86780934  0.75507387  0.03804344    -0.08400
C2521       C  0.89783300  0.77765445  0.05549850     0.05100
C2522       C  0.92390999  0.79526247  0.02500029    -0.03500
Br2523     Br  0.96573197  0.82694992  0.04459735    -0.03200
H2524       H  0.93870818  0.80767799  0.45532592     0.09000
H2525       H  0.84744093  0.74157176  0.06092141     0.07000
Br2526     Br  0.82014364  0.72392168  0.47071735    -0.03600
C2527       C  0.96350251  0.79858520  0.32960723    -0.10200
C2528       C  0.94955614  0.81720707  0.33801328     0.06000
C2529       C  0.97035663  0.85077600  0.34351223    -0.04000
C2530       C  0.50350526  0.86478904  0.33791786    -0.08400
C2531       C  0.51805154  0.84650550  0.33001328     0.05100
C2532       C  0.49711413  0.81248333  0.32793395    -0.03500
Br2533     Br  0.51120423  0.78219954  0.33062838    -0.03200
H2534       H  0.94826104  0.77273395  0.32680693     0.09000
H2535       H  0.51800351  0.89011425  0.34524438     0.07000
Br2536     Br  0.95723441  0.87937136  0.36695040    -0.03600
C2537       C  0.85698014  0.84496636  0.32165721    -0.10200
C2538       C  0.84466200  0.81716493  0.34928746     0.06000
C2539       C  0.81574678  0.80754534  0.37347707    -0.04000
C2540       C  0.80381861  0.82816927  0.37638204    -0.08400
C2541       C  0.81904696  0.85844217  0.35433247     0.05100
C2542       C  0.84425518  0.86510859  0.32316846    -0.03500
Br2543     Br  0.86048573  0.89797746  0.27719013    -0.03200
H2544       H  0.87594865  0.85105734  0.29715697     0.09000
H2545       H  0.78199137  0.82020052  0.39613810     0.07000
Br2546     Br  0.79081215  0.76655084  0.40352229    -0.03600
C2547       C  0.63129084  0.99276405  0.16748212    -0.10200
C2548       C  0.64883520  0.97714704  0.16512582     0.06000
C2549       C  0.68282260  0.99694268  0.16231755    -0.04000
C2550       C  0.69744642  0.53034527  0.16547126    -0.08400
C2551       C  0.67975832  0.54579849  0.16441172     0.05100
C2552       C  0.64558455  0.52599242  0.16453564    -0.03500
Br2553     Br  0.61566976  0.54026633  0.15478056    -0.03200
H2554       H  0.60548496  0.97934110  0.16533882     0.09000
H2555       H  0.72344898  0.54442200  0.16517308     0.07000
Br2556     Br  0.71052843  0.98090369  0.14778464    -0.03600
C2557       C  0.69440892  0.56759200  0.46714863    -0.10200
C2558       C  0.72073887  0.59019194  0.44075027     0.06000
C2559       C  0.74861103  0.61347881  0.46259664    -0.04000
C2560       C  0.74837406  0.61651066  0.00975075    -0.08400
C2561       C  0.72052650  0.59624346  0.03563194     0.05100
C2562       C  0.69415959  0.57037444  0.01405800    -0.03500
Br2563     Br  0.65566879  0.54055153  0.04654713    -0.03200
H2564       H  0.67272737  0.54958901  0.45070053     0.09000
H2565       H  0.76895445  0.63637815  0.02578854     0.07000
Br2566     Br  0.78593867  0.64341340  0.42798000    -0.03600
C2567       C  0.65322111  0.63975733  0.16815878    -0.10200
C2568       C  0.68105230  0.65052798  0.14057003     0.06000
C2569       C  0.69107965  0.67861783  0.11415264    -0.04000
C2570       C  0.67214639  0.69267091  0.11233214    -0.08400
C2571       C  0.64256310  0.67987614  0.13622368     0.05100
C2572       C  0.63465864  0.65432014  0.16712987    -0.03500
Br2573     Br  0.60201253  0.63970502  0.21374088    -0.03200
H2574       H  0.64553974  0.62055518  0.19193624     0.09000
H2575       H  0.68088285  0.71412874  0.09168672     0.07000
Br2576     Br  0.73040993  0.69938700  0.07894520    -0.03600
O2577       O  0.62307693  0.79113378  0.68629066    -0.82900
C2578       C  0.72517904  0.86516789  0.81165035     0.96500
O2579       O  0.71974877  0.84265759  0.78520692    -0.72000
O2580       O  0.66632806  0.78700929  0.79399921    -0.75600
Al2581     Al  0.68818015  0.81521818  0.74481518     1.49000
C2582       C  0.63639414  0.76751945  0.79583065     0.91700
O2583       O  0.61578496  0.82699935  0.79820304    -0.81800
O2584       O  0.66941065  0.88366903  0.70267725    -0.75400
Al2585     Al  0.62283351  0.81111031  0.74308916     1.90100
O2586       O  0.65363143  0.87795416  0.79225263    -0.74400
O2587       O  0.72497727  0.88750272  0.72000391    -0.74300
O2588       O  0.70785176  0.87755755  0.81063200    -0.79900
O2589       O  0.71229298  0.84014552  0.69450063    -0.78100
O2590       O  0.66573275  0.83458437  0.74822795    -1.14300
O2591       O  0.66193243  0.78345825  0.70420181    -0.73500
C2592       C  0.63772904  0.77611908  0.68104009     0.97200
C2593       C  0.62672036  0.85619859  0.80793541     0.93600
Al2594     Al  0.68678618  0.87767936  0.75567649     1.55600
O2595       O  0.61729972  0.77407079  0.77656728    -0.78100
C2596       C  0.73136052  0.87006262  0.69556235     0.97800
C2597       C  0.63998524  0.87067431  0.69370975     0.92700
O2598       O  0.61958004  0.84305046  0.70888641    -0.83400
C2599       C  0.69893639  0.63178498  0.63725869     0.85400
C2600       C  0.70061362  0.62240779  0.58799857    -0.54800
C2601       C  0.71677406  0.60663930  0.58172366     0.08300
C2602       C  0.72870483  0.59993922  0.62597744     0.19300
C2603       C  0.68416317  0.59976397  0.66420692    -0.55500
C2604       C  0.69768730  0.58165330  0.65563799     0.08400
C2605       C  0.73382811  0.64997546  0.65297591    -0.55100
C2606       C  0.74941370  0.63320354  0.64883316     0.09000
H2607       H  0.68989154  0.62792954  0.56005505     0.13500
H2608       H  0.74183915  0.58719189  0.62001204    -0.00700
H2609       H  0.66527193  0.59179317  0.68893362     0.13800
H2610       H  0.74391465  0.67261283  0.67085743     0.13600
C2611       C  0.86277153  0.79926585  0.85571307     0.85400
C2612       C  0.86688765  0.79446687  0.90606992    -0.54800
C2613       C  0.88176358  0.77772097  0.91421964     0.08300
C2614       C  0.89322834  0.76869524  0.87104148     0.19300
C2615       C  0.89727351  0.81588362  0.83576656    -0.55500
C2616       C  0.91396972  0.80117384  0.84572798     0.08400
C2617       C  0.84646709  0.76555207  0.83564637    -0.55100
C2618       C  0.86251267  0.74959333  0.84262725     0.09000
H2619       H  0.85891452  0.80384183  0.93333107     0.13500
H2620       H  0.90574653  0.75549437  0.87815425    -0.00700
H2621       H  0.90850376  0.83788594  0.81617774     0.13800
H2622       H  0.82554813  0.75631099  0.81429682     0.13600
C2623       C  0.68605659  0.60892605  0.83845268     0.85400
C2624       C  0.71496004  0.62061297  0.80719374    -0.54800
C2625       C  0.73361527  0.60765086  0.81460808     0.08300
C2626       C  0.71849101  0.57974414  0.85044825     0.19300
C2627       C  0.66669625  0.57256501  0.82868288    -0.55500
C2628       C  0.68310086  0.55669564  0.83533207     0.08400
C2629       C  0.69825753  0.61112023  0.88647547    -0.55100
C2630       C  0.71445101  0.59549873  0.89341856     0.09000
H2631       H  0.72049459  0.63851441  0.78094953     0.13500
H2632       H  0.73244719  0.56786625  0.85641357    -0.00700
H2633       H  0.64179244  0.56003258  0.81847896     0.13800
H2634       H  0.69261715  0.62244658  0.91383019     0.13600
C2635       C  0.55429691  0.86328260  0.84011172     0.85400
C2636       C  0.55835373  0.86049520  0.89058373    -0.54800
C2637       C  0.58905185  0.87703919  0.90539869     0.08300
C2638       C  0.61430868  0.89256176  0.86603300     0.19300
C2639       C  0.57435581  0.89985422  0.82857194    -0.55500
C2640       C  0.60543768  0.91550680  0.84299412     0.08400
C2641       C  0.57382991  0.85046887  0.81769796    -0.55100
C2642       C  0.60502465  0.86491759  0.83131751     0.09000
H2643       H  0.53787103  0.84635934  0.91305480     0.13500
H2644       H  0.63965446  0.90490588  0.87704302    -0.00700
H2645       H  0.56487623  0.91264907  0.81071707     0.13800
H2646       H  0.56460158  0.83282296  0.79104995     0.13600
C2647       C  0.63067492  0.94043712  0.65634154     0.85400
C2648       C  0.63199998  0.93339969  0.60608917    -0.54800
C2649       C  0.61690434  0.90154950  0.59583113     0.08300
C2650       C  0.60143995  0.87892209  0.63718529     0.19300
C2651       C  0.59451728  0.92098359  0.66949440    -0.55500
C2652       C  0.57871380  0.88908798  0.65842611     0.08400
C2653       C  0.64387488  0.92234198  0.68123653    -0.55100
C2654       C  0.62945343  0.89050900  0.67078048     0.09000
H2655       H  0.64212680  0.95216965  0.58017605     0.13500
H2656       H  0.58946915  0.85309641  0.62834631    -0.00700
H2657       H  0.58174014  0.93111304  0.68607457     0.13800
H2658       H  0.66245064  0.93349898  0.70648428     0.13600
C2659       C  0.88530517  0.81560521  0.66126347     0.85400
C2660       C  0.87422277  0.78591651  0.69063665    -0.54800
C2661       C  0.88773021  0.76799188  0.68033174     0.08300
C2662       C  0.91505199  0.78436037  0.64356407     0.19300
C2663       C  0.92148832  0.83505187  0.67052323    -0.55500
C2664       C  0.93775607  0.81966739  0.65985476     0.08400
C2665       C  0.88266324  0.80450106  0.61228506    -0.55100
C2666       C  0.89826324  0.78862074  0.60247483     0.09000
H2667       H  0.85718484  0.77968083  0.71848691     0.13500
H2668       H  0.92729179  0.77093618  0.63553492    -0.00700
H2669       H  0.93325084  0.85900704  0.68466477     0.13800
H2670       H  0.86967346  0.80931317  0.58686799     0.13600
C2671       C  0.81296282  0.88304663  0.65848283     0.85400
C2672       C  0.80714768  0.88689269  0.60869827    -0.54800
C2673       C  0.79116783  0.90267401  0.60199386     0.08300
C2674       C  0.78251461  0.91378759  0.64545135     0.19300
C2675       C  0.82971389  0.91697638  0.67812287    -0.55500
C2676       C  0.81515703  0.93429252  0.66973131     0.08400
C2677       C  0.77949271  0.86700473  0.68114731    -0.55100
C2678       C  0.76341770  0.88283789  0.67433538     0.09000
H2679       H  0.81463441  0.87744663  0.58095021     0.13500
H2680       H  0.76881094  0.92533726  0.63725652    -0.00700
H2681       H  0.85196719  0.92654450  0.69593194     0.13800
H2682       H  0.76947848  0.84592546  0.70293048     0.13600
C2683       C  0.62154726  0.68490242  0.83538092     0.85400
C2684       C  0.62096856  0.69396751  0.88473483    -0.54800
C2685       C  0.60772199  0.71242675  0.89156425     0.08300
C2686       C  0.59453927  0.71915041  0.84909934     0.19300
C2687       C  0.58662135  0.66878361  0.81983736    -0.55500
C2688       C  0.57170301  0.68567757  0.82872948     0.08400
C2689       C  0.63809160  0.71757774  0.80958112    -0.55100
C2690       C  0.62399425  0.73552573  0.81708933     0.09000
H2691       H  0.63137367  0.68738115  0.91193526     0.13500
H2692       H  0.58373311  0.73390690  0.85661851    -0.00700
H2693       H  0.57405174  0.64514711  0.80470910     0.13800
H2694       H  0.65857199  0.72571350  0.78671437     0.13600
C2695       C  0.93022274  0.61832511  0.83955993     0.85400
C2696       C  0.92445316  0.62272301  0.88905082    -0.54800
C2697       C  0.89312473  0.61088221  0.90189097     0.08300
C2698       C  0.86946296  0.59443930  0.86262322     0.19300
C2699       C  0.90871005  0.58187479  0.83182898    -0.55500
C2700       C  0.87718101  0.56896279  0.84522777     0.08400
C2701       C  0.91334566  0.63256097  0.81300866    -0.55100
C2702       C  0.88196738  0.62061014  0.82511127     0.09000
H2703       H  0.94420791  0.63394586  0.91255994     0.13500
H2704       H  0.84386240  0.58480226  0.87154706    -0.00700
H2705       H  0.91770406  0.56708396  0.81876925     0.13800
H2706       H  0.92451745  0.64991563  0.78553780     0.13600
C2707       C  0.80313572  0.87861076  0.86044914     0.85400
C2708       C  0.77213566  0.86332348  0.83473784    -0.54800
C2709       C  0.75407263  0.87722550  0.84002927     0.08300
C2710       C  0.76945150  0.90657081  0.87206810     0.19300
C2711       C  0.82116269  0.91453090  0.84667856    -0.55500
C2712       C  0.80367154  0.92932454  0.85240163     0.08400
C2713       C  0.79321126  0.87923292  0.90970384    -0.55100
C2714       C  0.77591560  0.89386148  0.91616160     0.09000
H2715       H  0.76545747  0.84288122  0.81288638     0.13500
H2716       H  0.75513087  0.91818511  0.87753730    -0.00700
H2717       H  0.84670012  0.92846897  0.83936876     0.13800
H2718       H  0.80149792  0.87109678  0.93784310     0.13600
C2719       C  0.88738620  0.57517472  0.66101594     0.85400
C2720       C  0.88336145  0.57799774  0.61014001    -0.54800
C2721       C  0.89392371  0.60843388  0.59417329     0.08300
C2722       C  0.90922568  0.63411262  0.63135611     0.19300
C2723       C  0.92325716  0.59839250  0.66943059    -0.55500
C2724       C  0.93518913  0.62867101  0.65192559     0.08400
C2725       C  0.87192533  0.59220465  0.68374587    -0.55100
C2726       C  0.88270936  0.62242966  0.66798161     0.09000
H2727       H  0.87268743  0.55700291  0.58855311     0.13500
H2728       H  0.91780753  0.65914829  0.62069243    -0.00700
H2729       H  0.93874331  0.59247996  0.68720247     0.13800
H2730       H  0.85421902  0.58154275  0.71123138     0.13600
C2731       C  0.62379041  0.69746467  0.63092366     0.85400
C2732       C  0.63961499  0.72873633  0.65698322    -0.54800
C2733       C  0.62623403  0.74740191  0.65194371     0.08300
C2734       C  0.59745837  0.73276169  0.61951889     0.19300
C2735       C  0.58792808  0.68046381  0.64455317    -0.55500
C2736       C  0.57392862  0.69869178  0.63894145     0.08400
C2737       C  0.62367792  0.70753411  0.58186646    -0.55100
C2738       C  0.61040591  0.72609026  0.57555327     0.09000
H2739       H  0.65957113  0.73492534  0.67924617     0.13500
H2740       H  0.58685008  0.74788295  0.61370548    -0.00700
H2741       H  0.57349675  0.65503957  0.65227051     0.13800
H2742       H  0.63278444  0.69993488  0.55375332     0.13600
O2743       O  0.88608703  0.71888114  0.70353753    -0.82900
C2744       C  0.76594198  0.62402649  0.79180901     0.96500
O2745       O  0.77486880  0.65099588  0.77353736    -0.72000
O2746       O  0.82574355  0.70196188  0.80514274    -0.75600
Al2747     Al  0.81237679  0.68550770  0.74638160     1.49000
C2748       C  0.85467806  0.72123723  0.81496265     0.91700
O2749       O  0.87502577  0.66337919  0.80352521    -0.81800
O2750       O  0.83924522  0.62807594  0.68674267    -0.75400
Al2751     Al  0.87729752  0.68907303  0.75339913     1.90100
O2752       O  0.84079712  0.61556242  0.77679659    -0.74400
O2753       O  0.78132377  0.62094614  0.69648262    -0.74300
O2754       O  0.78373028  0.61219175  0.78876108    -0.79900
O2755       O  0.79613851  0.67156940  0.68740519    -0.78100
O2756       O  0.83439289  0.66584420  0.74601370    -1.14300
O2757       O  0.84519333  0.72439518  0.71954805    -0.73500
C2758       C  0.87261419  0.73520334  0.70142693     0.97200
C2759       C  0.86380145  0.63339600  0.80248047     0.93600
Al2760     Al  0.81338617  0.62300535  0.73786070     1.55600
O2761       O  0.87703646  0.71929213  0.79578255    -0.78100
C2762       C  0.77793073  0.64238531  0.67733310     0.97800
C2763       C  0.86929406  0.64051104  0.68783527     0.92700
O2764       O  0.88649536  0.66377195  0.71339710    -0.83400
C2765       C  0.98804827  0.68015940  0.66279341    -0.10200
C2766       C  0.97031099  0.64956109  0.64355519     0.06000
C2767       C  0.98676832  0.63751461  0.61880429    -0.04000
C2768       C  0.52001243  0.65359208  0.61895516    -0.08400
C2769       C  0.53819738  0.68335494  0.64035530     0.05100
C2770       C  0.52178987  0.69756979  0.65995242    -0.03500
Br2771     Br  0.54383760  0.74031531  0.68285696    -0.03200
H2772       H  0.97564709  0.69027442  0.68043049     0.09000
H2773       H  0.53190745  0.64335930  0.60029515     0.07000
Br2774     Br  0.96510554  0.60031229  0.58109814    -0.03600
C2775       C  0.90846839  0.64133962  0.97340750    -0.10200
C2776       C  0.88546909  0.61388115  0.95017429     0.06000
C2777       C  0.86082149  0.58825335  0.97589017    -0.04000
C2778       C  0.86243437  0.58952416  0.52315068    -0.08400
C2779       C  0.88931638  0.61407243  0.54576663     0.05100
C2780       C  0.91206017  0.64112865  0.52012738    -0.03500
Br2781     Br  0.95146814  0.67578687  0.54315071    -0.03200
H2782       H  0.92666424  0.66210195  0.95443616     0.09000
H2783       H  0.84345586  0.56938333  0.54213704     0.07000
Br2784     Br  0.82645491  0.54960539  0.95048330    -0.03600
C2785       C  0.82687585  0.51630743  0.82618611    -0.10200
C2786       C  0.85538651  0.53338654  0.85076667     0.06000
C2787       C  0.86377000  0.51584634  0.87976280    -0.04000
C2788       C  0.84744014  0.98249154  0.87827123    -0.08400
C2789       C  0.81985542  0.96518620  0.85232616     0.05100
C2790       C  0.80851224  0.98246710  0.82838822    -0.03500
Br2791     Br  0.76809097  0.96076647  0.79883221    -0.03200
H2792       H  0.81905578  0.52930406  0.80536760     0.09000
H2793       H  0.85567969  0.96982463  0.89895267     0.07000
Br2794     Br  0.89410786  0.53558634  0.92715303    -0.03600
C2795       C  0.63763375  0.75128749  0.50388267    -0.09200
C2796       C  0.60868402  0.73632722  0.52900958     0.06000
C2797       C  0.57943111  0.72146493  0.50549617    -0.04000
C2798       C  0.57953396  0.71649701  0.95885001    -0.08400
C2799       C  0.60847115  0.72639579  0.93579285     0.05100
C2800       C  0.63774701  0.74602154  0.95762400    -0.03500
Br2801     Br  0.67847496  0.76295251  0.92680735    -0.03200
H2802       H  0.66034831  0.76343953  0.52125341     0.09000
H2803       H  0.55695091  0.70243029  0.94154631     0.07000
Br2804     Br  0.53855154  0.70454081  0.53457563    -0.03600
C2805       C  0.51802729  0.63756658  0.84495653    -0.10200
C2806       C  0.53580015  0.66921817  0.82839364     0.06000
C2807       C  0.51879187  0.68393158  0.81460021    -0.04000
C2808       C  0.98497101  0.66644573  0.81547166    -0.08400
C2809       C  0.96676648  0.63404595  0.83078333     0.05100
C2810       C  0.98447393  0.62039915  0.84742670    -0.03500
Br2811     Br  0.96655094  0.58009959  0.87868082    -0.03200
H2812       H  0.53040655  0.62633399  0.85861820     0.09000
H2813       H  0.97342472  0.67955690  0.80658722     0.07000
Br2814     Br  0.53962475  0.72802085  0.79626924    -0.03600
C2815       C  0.86719180  0.98724847  0.67400913    -0.10200
C2816       C  0.83324107  0.97031315  0.67537457     0.06000
C2817       C  0.81843242  0.98871140  0.67836961    -0.04000
C2818       C  0.83699439  0.52226940  0.67634145    -0.08400
C2819       C  0.87095409  0.53940405  0.67426886     0.05100
C2820       C  0.88596315  0.52090298  0.67377419    -0.03500
Br2821     Br  0.93131604  0.53718088  0.66958697    -0.03200
H2822       H  0.87987110  0.97471461  0.67017060     0.09000
H2823       H  0.82417320  0.53487071  0.67441503     0.07000
Br2824     Br  0.77326452  0.97147900  0.68497861    -0.03600
C2825       C  0.80062712  0.92963403  0.98090000    -0.10200
C2826       C  0.77303069  0.90345703  0.96251437     0.06000
C2827       C  0.74845507  0.88132059  0.99185478    -0.04000
C2828       C  0.75311762  0.88325769  0.53859587    -0.08400
C2829       C  0.78243453  0.90720730  0.55626223     0.05100
C2830       C  0.80551428  0.93142390  0.52744717    -0.03500
Br2831     Br  0.84602775  0.96501954  0.54951265    -0.03200
H2832       H  0.81983369  0.94656399  0.95883861     0.09000
H2833       H  0.73520208  0.86458606  0.56071255     0.07000
Br2834     Br  0.70996521  0.84554972  0.96883853    -0.03600
C2835       C  0.88179369  0.86537966  0.65338894    -0.10200
C2836       C  0.86664965  0.83298960  0.66752481     0.06000
C2837       C  0.83276258  0.81649305  0.67514484    -0.04000
C2838       C  0.81663055  0.83341273  0.67527692    -0.08400
C2839       C  0.83217120  0.86616595  0.66311470     0.05100
C2840       C  0.86492275  0.88142318  0.64930716    -0.03500
Br2841     Br  0.88757889  0.92259459  0.61889897    -0.03200
H2842       H  0.90653567  0.87780203  0.64171144     0.09000
H2843       H  0.79100421  0.81955786  0.68060193     0.07000
Br2844     Br  0.80462553  0.77037472  0.67740211    -0.03600
C2845       C  0.52645909  0.88470838  0.64247712    -0.10200
C2846       C  0.54252921  0.86963880  0.65859409     0.06000
C2847       C  0.52367474  0.83751486  0.67438468    -0.04000
C2848       C  0.98987296  0.82163571  0.67454977    -0.08400
C2849       C  0.97391806  0.83715030  0.65934168     0.05100
C2850       C  0.99302667  0.86923221  0.64270743    -0.03500
Br2851     Br  0.97604142  0.89320805  0.61505414    -0.03200
H2852       H  0.54020245  0.90893373  0.62868807     0.09000
H2853       H  0.97593078  0.79716870  0.68738680     0.07000
Br2854     Br  0.54256332  0.81470667  0.69850915    -0.03600
C2855       C  0.62269944  0.88260078  0.97265361    -0.10200
C2856       C  0.59575512  0.88222962  0.95501127     0.06000
C2857       C  0.57544595  0.88676677  0.98558870    -0.04000
C2858       C  0.58184896  0.89058873  0.53122894    -0.08400
C2859       C  0.60874761  0.89132853  0.54839861     0.05100
C2860       C  0.62922005  0.88714360  0.51883176    -0.03500
Br2861     Br  0.66666289  0.88819115  0.54072645    -0.03200
H2862       H  0.63846300  0.87905926  0.95037199     0.09000
H2863       H  0.56660149  0.89478096  0.55375076     0.07000
Br2864     Br  0.53925171  0.89040249  0.96898704    -0.03600
C2865       C  0.67046546  0.67934209  0.82549927    -0.10200
C2866       C  0.63696903  0.66404243  0.83162161     0.06000
C2867       C  0.62047147  0.63089973  0.84453104    -0.04000
C2868       C  0.63615615  0.61342596  0.84303493    -0.08400
C2869       C  0.66927162  0.62839040  0.83381891     0.05100
C2870       C  0.68670351  0.66255784  0.82906490    -0.03500
Br2871     Br  0.73268267  0.68940245  0.83440895    -0.03200
H2872       H  0.68482775  0.70522781  0.82206920     0.09000
H2873       H  0.62263655  0.58834494  0.85309710     0.07000
Br2874     Br  0.57833459  0.60832232  0.87218472    -0.03600
C2875       C  0.63493907  0.50450198  0.85919931    -0.10200
C2876       C  0.66518066  0.52037038  0.83733279     0.06000
C2877       C  0.67623807  0.50114927  0.81767994    -0.04000
C2878       C  0.65708062  0.96722122  0.82071598    -0.08400
C2879       C  0.62643732  0.95167189  0.84189713     0.05100
C2880       C  0.61581042  0.97116329  0.86155525    -0.03500
Br2881     Br  0.57526556  0.95406779  0.89248635    -0.03200
H2882       H  0.62600428  0.51840890  0.87545742     0.09000
H2883       H  0.66568741  0.95286934  0.80497955     0.07000
Br2884     Br  0.71608541  0.51991080  0.78430629    -0.03600
C2885       C  0.91896950  0.79221230  0.97820125    -0.10200
C2886       C  0.88819955  0.77216646  0.96113543     0.06000
C2887       C  0.86279652  0.75242011  0.99136784    -0.04000
C2888       C  0.86777530  0.75506321  0.53796220    -0.08400
C2889       C  0.89778848  0.77758400  0.55550071     0.05100
C2890       C  0.92391738  0.79516342  0.52506038    -0.03500
Br2891     Br  0.96577445  0.82668711  0.54477899    -0.03200
H2892       H  0.93861322  0.80773872  0.95524690     0.09000
H2893       H  0.84737089  0.74157576  0.56078751     0.07000
Br2894     Br  0.82011699  0.72379693  0.97088139    -0.03600
C2895       C  0.96357664  0.79885029  0.82983071    -0.10200
C2896       C  0.94960158  0.81743857  0.83828337     0.06000
C2897       C  0.97037767  0.85101293  0.84381055    -0.04000
C2898       C  0.50353223  0.86495880  0.83854385    -0.08400
C2899       C  0.51807530  0.84667492  0.83060566     0.05100
C2900       C  0.49714537  0.81265735  0.82847550    -0.03500
Br2901     Br  0.51124566  0.78237176  0.83112232    -0.03200
H2902       H  0.94836011  0.77300152  0.82699052     0.09000
H2903       H  0.51802731  0.89027605  0.84592103     0.07000
Br2904     Br  0.95721764  0.87956246  0.86731508    -0.03600
C2905       C  0.85686068  0.84489788  0.82158482    -0.10200
C2906       C  0.84458004  0.81714722  0.84931597     0.06000
C2907       C  0.81568236  0.80755516  0.87353280    -0.04000
C2908       C  0.80376930  0.82819525  0.87641348    -0.08400
C2909       C  0.81899746  0.85845066  0.85430726     0.05100
C2910       C  0.84415741  0.86505948  0.82308689    -0.03500
Br2911     Br  0.86034668  0.89787815  0.77704246    -0.03200
H2912       H  0.87576567  0.85091783  0.79702302     0.09000
H2913       H  0.78196058  0.82025565  0.89619521     0.07000
Br2914     Br  0.79074653  0.76656925  0.90360944    -0.03600
C2915       C  0.63076882  0.99251751  0.66531155    -0.10200
C2916       C  0.64836490  0.97692630  0.66445459     0.06000
C2917       C  0.68237880  0.99675063  0.66269298    -0.04000
C2918       C  0.69782723  0.53043765  0.66479234    -0.08400
C2919       C  0.68015345  0.54594181  0.66473215     0.05100
C2920       C  0.64597097  0.52612447  0.66584853    -0.03500
Br2921     Br  0.61583866  0.54029617  0.65758444    -0.03200
H2922       H  0.60494755  0.97898668  0.66198636     0.09000
H2923       H  0.72382797  0.54445765  0.66386388     0.07000
Br2924     Br  0.71037898  0.98086594  0.64945196    -0.03600
C2925       C  0.69449298  0.56743342  0.96694755    -0.10200
C2926       C  0.72079290  0.59007395  0.94056511     0.06000
C2927       C  0.74864269  0.61338279  0.96243991    -0.04000
C2928       C  0.74837912  0.61658798  0.50990342    -0.08400
C2929       C  0.72053055  0.59635661  0.53579516     0.05100
C2930       C  0.69409881  0.57054255  0.51426154    -0.03500
Br2931     Br  0.65556908  0.54087557  0.54687766    -0.03200
H2932       H  0.67284161  0.54938767  0.95048535     0.09000
H2933       H  0.76898353  0.63643535  0.52593193     0.07000
Br2934     Br  0.78601760  0.64325413  0.92785517    -0.03600
C2935       C  0.65328806  0.63978684  0.66830078    -0.10200
C2936       C  0.68116408  0.65061552  0.64079839     0.06000
C2937       C  0.69117048  0.67870315  0.61437202    -0.04000
C2938       C  0.67223700  0.69275674  0.61258234    -0.08400
C2939       C  0.64264120  0.67994109  0.63644334     0.05100
C2940       C  0.63471817  0.65434666  0.66729135    -0.03500
Br2941     Br  0.60201588  0.63967030  0.71382096    -0.03200
H2942       H  0.64553160  0.62045494  0.69196963     0.09000
H2943       H  0.68097305  0.71422131  0.59194308     0.07000
Br2944     Br  0.73042180  0.69941823  0.57897834    -0.03600
loop_ 
_geom_bond_atom_site_label_1 
_geom_bond_atom_site_label_2 
_geom_bond_distance 
_geom_bond_site_symmetry_2 
_ccdc_geom_bond_type 
O1           C16   1.263       .  A
O1           Al9   1.943       .  S
C2           O12   1.263       .  A
C2            O3   1.259       .  A
C2          C133   1.485       .  S
O3           Al5   1.871       .  S
O4            C6   1.261       .  A
O4           Al5   1.887       .  S
Al5          O13   1.878       .  S
Al5          O15   1.861       .  S
Al5          O14   1.772       .  S
C6           O19   1.267       .  A
C6          C114   1.479       .  S
O7           C17   1.266       .  A
O7           Al9   1.904       .  S
O8           C21   1.262       .  A
O8          Al18   1.881       .  S
Al9          O22   1.924       .  S
Al9          O19   1.942       .  S
Al9          O14   1.796       .  S
O10          C17   1.263       .  A
O10         Al18   1.933       .  S
O11          C20   1.266       .  A
O11         Al18   1.953       .  S
O12         Al18   1.934       .  S
O13          C20   1.257       .  A
O14         Al18   1.808       .  S
O15          C16   1.253       .  A
C16         C157   1.486       .  S
C17          C66   1.487       .  S
C20         C102   1.476       .  S
C21          O22   1.263       .  A
C21          C78   1.471       .  S
C23          C24   1.540       .  S
C23          C29   1.532       .  S
C23          C27   1.547       .  S
C23         C360   1.551       .  S
C24          H31   1.087       .  S
C24          C25   1.362       .  D
C25         C353   1.488       .  S
C25          C26   1.538       .  S
C26          C30   1.556       .  S
C26          C28   1.551       .  S
C26          H32   1.108       .  S
C27          H33   1.068       .  S
C27          C28   1.365       .  D
C28         C343   1.506       .  S
C29          H34   1.086       .  S
C29          C30   1.374       .  D
C30         C186   1.492       .  S
C35          C36   1.537       .  S
C35          C41   1.528       .  S
C35          C39   1.544       .  S
C35         C330   1.539       .  S
C36          H43   1.087       .  S
C36          C37   1.361       .  D
C37         C310   1.480       .  S
C37          C38   1.538       .  S
C38          C42   1.550       .  S
C38          C40   1.547       .  S
C38          H44   1.110       .  S
C39          H45   1.077       .  S
C39          C40   1.364       .  D
C40         C320   1.499       .  S
C41          H46   1.087       .  S
C41          C42   1.371       .  D
C42         C172   1.477       .  S
C47          C48   1.512       .  S
C47          C53   1.528       .  S
C47          C51   1.542       .  S
C47         C293   1.542       .  S
C48          H55   1.086       .  S
C48          C49   1.364       .  D
C49         C168   1.494       .  S
C49          C50   1.562       .  S
C50          C54   1.545       .  S
C50          C52   1.564       .  S
C50          H56   1.109       .  S
C51          H57   1.085       .  S
C51          C52   1.381       .  D
C52         C300   1.511       .  S
C53          H58   1.087       .  S
C53          C54   1.363       .  D
C54         C350   1.483       .  S
C59          C60   1.522       .  S
C59          C65   1.524       .  S
C59          C63   1.555       .  S
C59         C323   1.542       .  S
C60          H67   1.085       .  S
C60          C61   1.358       .  D
C61         C280   1.500       .  S
C61          C62   1.558       .  S
C62          C66   1.565       .  S
C62          C64   1.546       .  S
C62          H68   1.110       .  S
C63          H69   1.085       .  S
C63          C64   1.369       .  D
C64         C303   1.508       .  S
C65          H70   1.082       .  S
C65          C66   1.368       .  D
C71          C72   1.532       .  S
C71          C77   1.522       .  S
C71          C75   1.548       .  S
C71         C340   1.539       .  S
C72          H79   1.087       .  S
C72          C73   1.363       .  D
C73         C283   1.478       .  S
C73          C74   1.543       .  S
C74          C78   1.551       .  S
C74          C76   1.550       .  S
C74          H80   1.109       .  S
C75          H81   1.084       .  S
C75          C76   1.369       .  D
C76         C270   1.506       .  S
C77          H82   1.087       .  S
C77          C78   1.365       .  D
C83          C84   1.517       .  S
C83          C89   1.529       .  S
C83          C87   1.536       .  S
C83         C260   1.535       .  S
C84          H91   1.084       .  S
C84          C85   1.366       .  D
C85         C182   1.496       .  S
C85          C86   1.562       .  S
C86          C90   1.544       .  S
C86          C88   1.566       .  S
C86          H92   1.110       .  S
C87          H93   1.084       .  S
C87          C88   1.374       .  D
C88         C273   1.506       .  S
C89          H94   1.087       .  S
C89          C90   1.361       .  D
C90         C313   1.485       .  S
C95          C96   1.531       .  S
C95         C101   1.536       .  S
C95          C99   1.531       .  S
C95         C263   1.535       .  S
C96         H103   1.087       .  S
C96          C97   1.359       .  D
C97         C253   1.472       .  S
C97          C98   1.529       .  S
C98         C102   1.542       .  S
C98         C100   1.558       .  S
C98         H104   1.098       .  S
C99         H105   1.077       .  S
C99         C100   1.374       .  D
C100        C240   1.509       .  S
C101        H106   1.083       .  S
C101        C102   1.366       .  D
C107        C108   1.528       .  S
C107        C113   1.551       .  S
C107        C111   1.535       .  S
C107        C290   1.543       .  S
C108        H115   1.087       .  S
C108        C109   1.361       .  D
C109        C223   1.466       .  S
C109        C110   1.526       .  S
C110        C114   1.536       .  S
C110        C112   1.547       .  S
C110        H116   1.107       .  S
C111        H117   1.084       .  S
C111        C112   1.370       .  D
C112        C230   1.498       .  S
C113        H118   1.085       .  S
C113        C114   1.375       .  D
C119        C120   1.521       .  S
C119        C125   1.539       .  S
C119        C123   1.541       .  S
C119        C233   1.546       .  S
C120        H127   1.087       .  S
C120        C121   1.368       .  D
C121        C200   1.496       .  S
C121        C122   1.549       .  S
C122        C126   1.546       .  S
C122        C124   1.553       .  S
C122        H128   1.107       .  S
C123        H129   1.085       .  S
C123        C124   1.374       .  D
C124        C210   1.495       .  S
C125        H130   1.084       .  S
C125        C126   1.364       .  D
C126        C183   1.481       .  S
C131        C132   1.509       .  S
C131        C137   1.532       .  S
C131        C135   1.544       .  S
C131        C333   1.537       .  S
C132        H139   1.088       .  S
C132        C133   1.364       .  D
C133        C134   1.552       .  S
C134        C138   1.544       .  S
C134        C136   1.548       .  S
C134        H140   1.110       .  S
C135        H141   1.081       .  S
C135        C136   1.376       .  D
C136        C213   1.495       .  S
C137        H142   1.087       .  S
C137        C138   1.364       .  D
C138        C250   1.476       .  S
C143        C144   1.534       .  S
C143        C149   1.526       .  S
C143        C147   1.535       .  S
C143        C243   1.537       .  S
C144        H151   1.087       .  S
C144        C145   1.370       .  D
C145        C203   1.497       .  S
C145        C146   1.544       .  S
C146        C150   1.535       .  S
C146        C148   1.548       .  S
C146        H152   1.105       .  S
C147        H153   1.076       .  S
C147        C148   1.368       .  D
C148        C190   1.484       .  S
C149        H154   1.089       .  S
C149        C150   1.357       .  D
C150        C187   1.457       .  S
C155        C156   1.518       .  S
C155        C161   1.530       .  S
C155        C159   1.541       .  S
C155        C363   1.549       .  S
C156        H163   1.087       .  S
C156        C157   1.370       .  D
C157        C158   1.547       .  S
C158        C162   1.542       .  S
C158        C160   1.548       .  S
C158        H164   1.108       .  S
C159        H165   1.080       .  S
C159        C160   1.378       .  D
C160        C193   1.495       .  S
C161        H166   1.087       .  S
C161        C162   1.366       .  D
C162        C220   1.479       .  S
O167        C182   1.264       .  A
O167       Al175   1.945       .  S
C168        O178   1.264       .  A
C168        O169   1.264       .  A
O169       Al171   1.890       .  S
O170        C172   1.261       .  A
O170       Al171   1.891       .  S
Al171       O179   1.900       .  S
Al171       O181   1.893       .  S
Al171       O180   1.764       .  S
C172        O185   1.265       .  A
O173        C183   1.264       .  A
O173       Al175   1.899       .  S
O174        C187   1.261       .  A
O174       Al184   1.883       .  S
Al175       O188   1.914       .  S
Al175       O185   1.936       .  S
Al175       O180   1.804       .  S
O176        C183   1.266       .  A
O176       Al184   1.941       .  S
O177        C186   1.268       .  A
O177       Al184   1.956       .  S
O178       Al184   1.941       .  S
O179        C186   1.262       .  A
O180       Al184   1.800       .  S
O181        C182   1.263       .  A
C187        O188   1.261       .  A
C189        C190   1.403       .  A
C189       C1666   1.409       .  A
C189        H196   1.084       .  S
C190        C191   1.409       .  A
C191       C1664   1.390       .  A
C191       Br198   1.921       .  S
C192        C193   1.403       .  A
C192       C1663   1.390   1_455  A
C192        H197   1.083       .  S
C193        C194   1.416       .  A
C194       C1661   1.409   1_455  A
C194       Br195   1.908       .  S
C199        C200   1.408       .  A
C199        C572   1.395       .  A
C199        H206   1.084       .  S
C200        C201   1.411       .  A
C201        C570   1.399       .  A
C201       Br208   1.918       .  S
C202        C203   1.412       .  A
C202        C569   1.399   1_554  A
C202        H207   1.083       .  S
C203        C204   1.412       .  A
C204        C567   1.395   1_554  A
C204       Br205   1.917       .  S
C209        C210   1.407       .  A
C209        C950   1.414   1_545  A
C209        H216   1.083       .  S
C210        C211   1.411       .  A
C211        C948   1.393   1_545  A
C211       Br218   1.912       .  S
C212        C213   1.400       .  A
C212        C947   1.393       .  A
C212        H217   1.082       .  S
C213        C214   1.412       .  A
C214        C945   1.413       .  A
C214       Br215   1.910       .  S
C219        C220   1.404       .  A
C219        C592   1.393   1_554  A
C219        H226   1.084       .  S
C220        C221   1.412       .  A
C221        C590   1.397   1_554  A
C221       Br228   1.904       .  S
C222        C223   1.395       .  A
C222        C589   1.397       .  A
C222        H227   1.084       .  S
C223        C224   1.406       .  A
C224        C587   1.393       .  A
C224       Br225   1.921       .  S
C229        C230   1.400       .  A
C229       C1706   1.394   1_455  A
C229        H236   1.080       .  S
C230        C231   1.406       .  A
C231       C1704   1.404   1_455  A
C231       Br238   1.908       .  S
C232        C233   1.418       .  A
C232       C1703   1.404       .  A
C232        H237   1.078       .  S
C233        C234   1.422       .  A
C234       C1701   1.394       .  A
C234       Br235   1.910       .  S
C239        C240   1.413       .  A
C239        C980   1.398       .  A
C239        H246   1.072       .  S
C240        C241   1.409       .  A
C241        C978   1.394       .  A
C241       Br248   1.910       .  S
C242        C243   1.414       .  A
C242        C977   1.394   1_545  A
C242        H247   1.077       .  S
C243        C244   1.420       .  A
C244        C975   1.398   1_545  A
C244       Br245   1.921       .  S
C249        C250   1.404       .  A
C249        C622   1.396       .  A
C249        H256   1.077       .  S
C250        C251   1.405       .  A
C251        C620   1.401       .  A
C251       Br258   1.914       .  S
C252        C253   1.402       .  A
C252        C619   1.400   1_554  A
C252        H257   1.083       .  S
C253        C254   1.404       .  A
C254        C617   1.396   1_554  A
C254       Br255   1.920       .  S
C259        C260   1.408       .  A
C259        C264   1.399       .  A
C259        H266   1.080       .  S
C260        C261   1.425       .  A
C261        C262   1.398       .  A
C261       Br268   1.929       .  S
C262        C263   1.406       .  A
C262        H267   1.076       .  S
C263        C264   1.418       .  A
C264       Br265   1.925       .  S
C269        C270   1.404       .  A
C269       C1746   1.397   1_455  A
C269        H276   1.084       .  S
C270        C271   1.414       .  A
C271       C1744   1.413   1_455  A
C271       Br278   1.909       .  S
C272        C273   1.408       .  A
C272       C1743   1.413       .  A
C272        H277   1.083       .  S
C273        C274   1.421       .  A
C274       C1741   1.397       .  A
C274       Br275   1.927       .  S
C279        C280   1.408       .  A
C279        C652   1.408       .  A
C279        H286   1.083       .  S
C280        C281   1.428       .  A
C281        C650   1.392       .  A
C281       Br288   1.927       .  S
C282        C283   1.392       .  A
C282        C649   1.393   1_554  A
C282        H287   1.084       .  S
C283        C284   1.407       .  A
C284        C647   1.408   1_554  A
C284       Br285   1.916       .  S
C289        C290   1.406       .  A
C289        C294   1.402       .  A
C289        H296   1.081       .  S
C290        C291   1.426       .  A
C291        C292   1.404       .  A
C291       Br298   1.922       .  S
C292        C293   1.404       .  A
C292        H297   1.081       .  S
C293        C294   1.426       .  A
C294       Br295   1.929       .  S
C299        C300   1.405       .  A
C299       C1040   1.397   1_545  A
C299        H306   1.083       .  S
C300        C301   1.417       .  A
C301       C1038   1.419   1_545  A
C301       Br308   1.917       .  S
C302        C303   1.411       .  A
C302       C1037   1.419       .  A
C302        H307   1.083       .  S
C303        C304   1.414       .  A
C304       C1035   1.397       .  A
C304       Br305   1.914       .  S
C309        C310   1.399       .  A
C309        C682   1.402       .  A
C309        H316   1.084       .  S
C310        C311   1.409       .  A
C311        C680   1.398       .  A
C311       Br318   1.914       .  S
C312        C313   1.403       .  A
C312        C679   1.398   1_554  A
C312        H317   1.084       .  S
C313        C314   1.413       .  A
C314        C677   1.402   1_554  A
C314       Br315   1.908       .  S
C319        C320   1.403       .  A
C319       C1796   1.406       .  A
C319        H326   1.083       .  S
C320        C321   1.417       .  A
C321       C1794   1.393       .  A
C321       Br328   1.929       .  S
C322        C323   1.410       .  A
C322       C1793   1.393   1_455  A
C322        H327   1.080       .  S
C323        C324   1.426   1_455  A
C324       C1791   1.406       .  A
C324       Br325   1.918   1_655  S
C329        C330   1.412       .  A
C329        C334   1.402       .  A
C329        H336   1.077       .  S
C330        C331   1.413       .  A
C331        C332   1.395       .  A
C331       Br338   1.921       .  S
C332        C333   1.411       .  A
C332        H337   1.083       .  S
C333        C334   1.418       .  A
C334       Br335   1.917       .  S
C339        C340   1.405       .  A
C339       C1080   1.394       .  A
C339        H346   1.081       .  S
C340        C341   1.420       .  A
C341       C1078   1.402       .  A
C341       Br348   1.916       .  S
C342        C343   1.404       .  A
C342       C1077   1.402   1_545  A
C342        H347   1.083       .  S
C343        C344   1.426       .  A
C344       C1075   1.394   1_545  A
C344       Br345   1.931       .  S
C349        C350   1.402       .  A
C349        C722   1.400       .  A
C349        H356   1.084       .  S
C350        C351   1.406       .  A
C351        C720   1.407       .  A
C351       Br358   1.915       .  S
C352        C353   1.406       .  A
C352        C719   1.407   1_554  A
C352        H357   1.084       .  S
C353        C354   1.410       .  A
C354        C717   1.400   1_554  A
C354       Br355   1.915       .  S
C359        C360   1.416       .  A
C359        C364   1.405       .  A
C359        H366   1.066       .  S
C360        C361   1.416       .  A
C361        C362   1.402       .  A
C361       Br368   1.924       .  S
C362        C363   1.414       .  A
C362        H367   1.082       .  S
C363        C364   1.419       .  A
C364       Br365   1.921       .  S
O369        C384   1.263       .  A
O369       Al377   1.943       .  S
C370        O380   1.263       .  A
C370        O371   1.259       .  A
C370        C501   1.484       .  S
O371       Al373   1.870       .  S
O372        C374   1.261       .  A
O372       Al373   1.887       .  S
Al373       O381   1.878       .  S
Al373       O383   1.862       .  S
Al373       O382   1.772       .  S
C374        O387   1.267       .  A
C374        C482   1.479       .  S
O375        C385   1.266       .  A
O375       Al377   1.904       .  S
O376        C389   1.262       .  A
O376       Al386   1.880       .  S
Al377       O390   1.924       .  S
Al377       O387   1.942       .  S
Al377       O382   1.795       .  S
O378        C385   1.263       .  A
O378       Al386   1.934       .  S
O379        C388   1.266       .  A
O379       Al386   1.952       .  S
O380       Al386   1.932       .  S
O381        C388   1.257       .  A
O382       Al386   1.808       .  S
O383        C384   1.253       .  A
C384        C525   1.486       .  S
C385        C434   1.486       .  S
C388        C470   1.476       .  S
C389        O390   1.263       .  A
C389        C446   1.471       .  S
C391        C392   1.540       .  S
C391        C397   1.533       .  S
C391        C395   1.546       .  S
C391        C728   1.551       .  S
C392        H399   1.087       .  S
C392        C393   1.362       .  D
C393        C721   1.489       .  S
C393        C394   1.539       .  S
C394        C398   1.556       .  S
C394        C396   1.551       .  S
C394        H400   1.108       .  S
C395        H401   1.067       .  S
C395        C396   1.364       .  D
C396        C711   1.505       .  S
C397        H402   1.086       .  S
C397        C398   1.374       .  D
C398        C554   1.492       .  S
C403        C404   1.537       .  S
C403        C409   1.528       .  S
C403        C407   1.544       .  S
C403        C698   1.539       .  S
C404        H411   1.087       .  S
C404        C405   1.361       .  D
C405        C678   1.480       .  S
C405        C406   1.538       .  S
C406        C410   1.550       .  S
C406        C408   1.547       .  S
C406        H412   1.109       .  S
C407        H413   1.078       .  S
C407        C408   1.364       .  D
C408        C688   1.499       .  S
C409        H414   1.087       .  S
C409        C410   1.371       .  D
C410        C540   1.477       .  S
C415        C416   1.512       .  S
C415        C421   1.528       .  S
C415        C419   1.542       .  S
C415        C661   1.541       .  S
C416        H423   1.086       .  S
C416        C417   1.364       .  D
C417        C536   1.494       .  S
C417        C418   1.563       .  S
C418        C422   1.545       .  S
C418        C420   1.564       .  S
C418        H424   1.109       .  S
C419        H425   1.085       .  S
C419        C420   1.380       .  D
C420        C668   1.511       .  S
C421        H426   1.087       .  S
C421        C422   1.363       .  D
C422        C718   1.483       .  S
C427        C428   1.522       .  S
C427        C433   1.524       .  S
C427        C431   1.555       .  S
C427        C691   1.542       .  S
C428        H435   1.085       .  S
C428        C429   1.358       .  D
C429        C648   1.500       .  S
C429        C430   1.558       .  S
C430        C434   1.565       .  S
C430        C432   1.546       .  S
C430        H436   1.110       .  S
C431        H437   1.085       .  S
C431        C432   1.369       .  D
C432        C671   1.508       .  S
C433        H438   1.082       .  S
C433        C434   1.369       .  D
C439        C440   1.532       .  S
C439        C445   1.522       .  S
C439        C443   1.549       .  S
C439        C708   1.540       .  S
C440        H447   1.087       .  S
C440        C441   1.363       .  D
C441        C651   1.477       .  S
C441        C442   1.542       .  S
C442        C446   1.550       .  S
C442        C444   1.550       .  S
C442        H448   1.109       .  S
C443        H449   1.083       .  S
C443        C444   1.369       .  D
C444        C638   1.507       .  S
C445        H450   1.087       .  S
C445        C446   1.366       .  D
C451        C452   1.517       .  S
C451        C457   1.529       .  S
C451        C455   1.536       .  S
C451        C628   1.535       .  S
C452        H459   1.084       .  S
C452        C453   1.366       .  D
C453        C550   1.496       .  S
C453        C454   1.563       .  S
C454        C458   1.544       .  S
C454        C456   1.566       .  S
C454        H460   1.110       .  S
C455        H461   1.084       .  S
C455        C456   1.373       .  D
C456        C641   1.506       .  S
C457        H462   1.087       .  S
C457        C458   1.361       .  D
C458        C681   1.485       .  S
C463        C464   1.531       .  S
C463        C469   1.536       .  S
C463        C467   1.531       .  S
C463        C631   1.535       .  S
C464        H471   1.087       .  S
C464        C465   1.360       .  D
C465        C621   1.472       .  S
C465        C466   1.529       .  S
C466        C470   1.543       .  S
C466        C468   1.557       .  S
C466        H472   1.098       .  S
C467        H473   1.077       .  S
C467        C468   1.374       .  D
C468        C608   1.508       .  S
C469        H474   1.083       .  S
C469        C470   1.366       .  D
C475        C476   1.528       .  S
C475        C481   1.550       .  S
C475        C479   1.535       .  S
C475        C658   1.543       .  S
C476        H483   1.087       .  S
C476        C477   1.361       .  D
C477        C591   1.466       .  S
C477        C478   1.526       .  S
C478        C482   1.536       .  S
C478        C480   1.547       .  S
C478        H484   1.107       .  S
C479        H485   1.084       .  S
C479        C480   1.370       .  D
C480        C598   1.498       .  S
C481        H486   1.085       .  S
C481        C482   1.375       .  D
C487        C488   1.521       .  S
C487        C493   1.539       .  S
C487        C491   1.540       .  S
C487        C601   1.546       .  S
C488        H495   1.087       .  S
C488        C489   1.368       .  D
C489        C568   1.496       .  S
C489        C490   1.549       .  S
C490        C494   1.546       .  S
C490        C492   1.553       .  S
C490        H496   1.107       .  S
C491        H497   1.085       .  S
C491        C492   1.374       .  D
C492        C578   1.495       .  S
C493        H498   1.084       .  S
C493        C494   1.364       .  D
C494        C551   1.481       .  S
C499        C500   1.509       .  S
C499        C505   1.532       .  S
C499        C503   1.543       .  S
C499        C701   1.537       .  S
C500        H507   1.088       .  S
C500        C501   1.364       .  D
C501        C502   1.552       .  S
C502        C506   1.544       .  S
C502        C504   1.548       .  S
C502        H508   1.110       .  S
C503        H509   1.081       .  S
C503        C504   1.376       .  D
C504        C581   1.495       .  S
C505        H510   1.087       .  S
C505        C506   1.364       .  D
C506        C618   1.475       .  S
C511        C512   1.534       .  S
C511        C517   1.526       .  S
C511        C515   1.534       .  S
C511        C611   1.537       .  S
C512        H519   1.087       .  S
C512        C513   1.369       .  D
C513        C571   1.497       .  S
C513        C514   1.544       .  S
C514        C518   1.535       .  S
C514        C516   1.548       .  S
C514        H520   1.105       .  S
C515        H521   1.077       .  S
C515        C516   1.368       .  D
C516        C558   1.484       .  S
C517        H522   1.089       .  S
C517        C518   1.357       .  D
C518        C555   1.457       .  S
C523        C524   1.518       .  S
C523        C529   1.530       .  S
C523        C527   1.541       .  S
C523        C731   1.548       .  S
C524        H531   1.087       .  S
C524        C525   1.370       .  D
C525        C526   1.547       .  S
C526        C530   1.542       .  S
C526        C528   1.548       .  S
C526        H532   1.108       .  S
C527        H533   1.080       .  S
C527        C528   1.378       .  D
C528        C561   1.495       .  S
C529        H534   1.087       .  S
C529        C530   1.366       .  D
C530        C588   1.479       .  S
O535        C550   1.264       .  A
O535       Al543   1.945       .  S
C536        O546   1.264       .  A
C536        O537   1.264       .  A
O537       Al539   1.891       .  S
O538        C540   1.261       .  A
O538       Al539   1.891       .  S
Al539       O547   1.901       .  S
Al539       O549   1.895       .  S
Al539       O548   1.764       .  S
C540        O553   1.265       .  A
O541        C551   1.264       .  A
O541       Al543   1.899       .  S
O542        C555   1.261       .  A
O542       Al552   1.883       .  S
Al543       O556   1.914       .  S
Al543       O553   1.936       .  S
Al543       O548   1.804       .  S
O544        C551   1.266       .  A
O544       Al552   1.941       .  S
O545        C554   1.268       .  A
O545       Al552   1.957       .  S
O546       Al552   1.942       .  S
O547        C554   1.262       .  A
O548       Al552   1.800       .  S
O549        C550   1.263       .  A
C555        O556   1.261       .  A
C557        C558   1.402       .  A
C557       C2034   1.409       .  A
C557        H564   1.084       .  S
C558        C559   1.409       .  A
C559       C2032   1.390       .  A
C559       Br566   1.921       .  S
C560       C2031   1.389   1_455  A
C560        C561   1.403       .  A
C560        H565   1.083       .  S
C561        C562   1.416       .  A
C562       C2029   1.409   1_455  A
C562       Br563   1.908       .  S
C567        C568   1.409       .  A
C567        H574   1.084       .  S
C568        C569   1.411       .  A
C569       Br576   1.918       .  S
C570        C571   1.412       .  A
C570        H575   1.083       .  S
C571        C572   1.412       .  A
C572       Br573   1.917       .  S
C577        C578   1.407       .  A
C577       C1318   1.413   1_545  A
C577        H584   1.083       .  S
C578        C579   1.411       .  A
C579       C1316   1.393   1_545  A
C579       Br586   1.913       .  S
C580       C1315   1.393       .  A
C580        C581   1.400       .  A
C580        H585   1.083       .  S
C581        C582   1.412       .  A
C582       C1313   1.414       .  A
C582       Br583   1.910       .  S
C587        C588   1.404       .  A
C587        H594   1.084       .  S
C588        C589   1.412       .  A
C589       Br596   1.904       .  S
C590        C591   1.395       .  A
C590        H595   1.084       .  S
C591        C592   1.406       .  A
C592       Br593   1.921       .  S
C597        C598   1.400       .  A
C597       C2074   1.394   1_455  A
C597        H604   1.080       .  S
C598        C599   1.406       .  A
C599       C2072   1.404   1_455  A
C599       Br606   1.908       .  S
C600       C2071   1.404       .  A
C600        C601   1.418       .  A
C600        H605   1.078       .  S
C601        C602   1.422       .  A
C602       C2069   1.394       .  A
C602       Br603   1.910       .  S
C607        C608   1.413       .  A
C607       C1348   1.398       .  A
C607        H614   1.071       .  S
C608        C609   1.410       .  A
C609       C1346   1.394       .  A
C609       Br616   1.910       .  S
C610       C1345   1.394   1_545  A
C610        C611   1.413       .  A
C610        H615   1.078       .  S
C611        C612   1.420       .  A
C612       C1343   1.398   1_545  A
C612       Br613   1.921       .  S
C617        C618   1.404       .  A
C617        H624   1.078       .  S
C618        C619   1.405       .  A
C619       Br626   1.914       .  S
C620        C621   1.402       .  A
C620        H625   1.083       .  S
C621        C622   1.404       .  A
C622       Br623   1.920       .  S
C627        C628   1.408       .  A
C627        C632   1.399       .  A
C627        H634   1.080       .  S
C628        C629   1.425       .  A
C629        C630   1.398       .  A
C629       Br636   1.929       .  S
C630        C631   1.406       .  A
C630        H635   1.076       .  S
C631        C632   1.418       .  A
C632       Br633   1.925       .  S
C637        C638   1.404       .  A
C637       C2114   1.397   1_455  A
C637        H644   1.084       .  S
C638        C639   1.414       .  A
C639       C2112   1.413   1_455  A
C639       Br646   1.908       .  S
C640       C2111   1.413       .  A
C640        C641   1.408       .  A
C640        H645   1.083       .  S
C641        C642   1.421       .  A
C642       C2109   1.397       .  A
C642       Br643   1.927       .  S
C647        C648   1.408       .  A
C647        H654   1.083       .  S
C648        C649   1.428       .  A
C649       Br656   1.927       .  S
C650        C651   1.392       .  A
C650        H655   1.084       .  S
C651        C652   1.407       .  A
C652       Br653   1.916       .  S
C657        C658   1.406       .  A
C657        C662   1.401       .  A
C657        H664   1.081       .  S
C658        C659   1.426       .  A
C659        C660   1.403       .  A
C659       Br666   1.922       .  S
C660        C661   1.404       .  A
C660        H665   1.081       .  S
C661        C662   1.425       .  A
C662       Br663   1.929       .  S
C667        C668   1.405       .  A
C667       C1408   1.398   1_545  A
C667        H674   1.083       .  S
C668        C669   1.417       .  A
C669       C1406   1.419   1_545  A
C669       Br676   1.917       .  S
C670       C1405   1.419       .  A
C670        C671   1.411       .  A
C670        H675   1.083       .  S
C671        C672   1.414       .  A
C672       C1403   1.398       .  A
C672       Br673   1.914       .  S
C677        C678   1.399       .  A
C677        H684   1.084       .  S
C678        C679   1.409       .  A
C679       Br686   1.913       .  S
C680        C681   1.403       .  A
C680        H685   1.084       .  S
C681        C682   1.412       .  A
C682       Br683   1.908       .  S
C687        C688   1.403       .  A
C687       C2164   1.407       .  A
C687        H694   1.083       .  S
C688        C689   1.417       .  A
C689       C2162   1.393       .  A
C689       Br696   1.929       .  S
C690       C2161   1.393   1_455  A
C690        C691   1.410       .  A
C690        H695   1.079       .  S
C691        C692   1.426   1_455  A
C692       C2159   1.406       .  A
C692       Br693   1.918   1_655  S
C697        C698   1.412       .  A
C697        C702   1.402       .  A
C697        H704   1.077       .  S
C698        C699   1.413       .  A
C699        C700   1.394       .  A
C699       Br706   1.920       .  S
C700        C701   1.411       .  A
C700        H705   1.083       .  S
C701        C702   1.418       .  A
C702       Br703   1.917       .  S
C707        C708   1.405       .  A
C707       C1448   1.394       .  A
C707        H714   1.077       .  S
C708        C709   1.420       .  A
C709       C1446   1.402       .  A
C709       Br716   1.916       .  S
C710       C1445   1.402   1_545  A
C710        C711   1.404       .  A
C710        H715   1.083       .  S
C711        C712   1.426       .  A
C712       C1443   1.394   1_545  A
C712       Br713   1.931       .  S
C717        C718   1.403       .  A
C717        H724   1.084       .  S
C718        C719   1.406       .  A
C719       Br726   1.915       .  S
C720        C721   1.406       .  A
C720        H725   1.084       .  S
C721        C722   1.411       .  A
C722       Br723   1.914       .  S
C727        C728   1.416       .  A
C727        C732   1.405       .  A
C727        H734   1.064       .  S
C728        C729   1.416       .  A
C729        C730   1.402       .  A
C729       Br736   1.924       .  S
C730        C731   1.414       .  A
C730        H735   1.082       .  S
C731        C732   1.419       .  A
C732       Br733   1.921       .  S
O737        C752   1.263       .  A
O737       Al745   1.943       .  S
C738        O748   1.263       .  A
C738        O739   1.259       .  A
C738        C869   1.484       .  S
O739       Al741   1.871       .  S
O740        C742   1.261       .  A
O740       Al741   1.887       .  S
Al741       O749   1.878       .  S
Al741       O751   1.862       .  S
Al741       O750   1.772       .  S
C742        O755   1.267       .  A
C742        C850   1.479       .  S
O743        C753   1.266       .  A
O743       Al745   1.904       .  S
O744        C757   1.262       .  A
O744       Al754   1.880       .  S
Al745       O758   1.924       .  S
Al745       O755   1.941       .  S
Al745       O750   1.795       .  S
O746        C753   1.263       .  A
O746       Al754   1.934       .  S
O747        C756   1.266       .  A
O747       Al754   1.952       .  S
O748       Al754   1.932       .  S
O749        C756   1.257       .  A
O750       Al754   1.808       .  S
O751        C752   1.253       .  A
C752        C893   1.486       .  S
C753        C802   1.487       .  S
C756        C838   1.476       .  S
C757        O758   1.263       .  A
C757        C814   1.471       .  S
C759        C760   1.540       .  S
C759        C765   1.533       .  S
C759        C763   1.546       .  S
C759       C1096   1.551       .  S
C760        H767   1.087       .  S
C760        C761   1.362       .  D
C761       C1089   1.489       .  S
C761        C762   1.539       .  S
C762        C766   1.556       .  S
C762        C764   1.551       .  S
C762        H768   1.108       .  S
C763        H769   1.067       .  S
C763        C764   1.364       .  D
C764       C1079   1.505       .  S
C765        H770   1.086       .  S
C765        C766   1.374       .  D
C766        C922   1.492       .  S
C771        C772   1.537       .  S
C771        C777   1.528       .  S
C771        C775   1.544       .  S
C771       C1066   1.539       .  S
C772        H779   1.087       .  S
C772        C773   1.361       .  D
C773       C1046   1.480       .  S
C773        C774   1.538       .  S
C774        C778   1.550       .  S
C774        C776   1.547       .  S
C774        H780   1.110       .  S
C775        H781   1.077       .  S
C775        C776   1.364       .  D
C776       C1056   1.499       .  S
C777        H782   1.087       .  S
C777        C778   1.371       .  D
C778        C908   1.476       .  S
C783        C784   1.512       .  S
C783        C789   1.528       .  S
C783        C787   1.542       .  S
C783       C1029   1.541       .  S
C784        H791   1.086       .  S
C784        C785   1.364       .  D
C785        C904   1.494       .  S
C785        C786   1.562       .  S
C786        C790   1.545       .  S
C786        C788   1.564       .  S
C786        H792   1.109       .  S
C787        H793   1.085       .  S
C787        C788   1.380       .  D
C788       C1036   1.511       .  S
C789        H794   1.087       .  S
C789        C790   1.363       .  D
C790       C1086   1.483       .  S
C795        C796   1.522       .  S
C795        C801   1.524       .  S
C795        C799   1.555       .  S
C795       C1059   1.542       .  S
C796        H803   1.085       .  S
C796        C797   1.358       .  D
C797       C1016   1.500       .  S
C797        C798   1.558       .  S
C798        C802   1.565       .  S
C798        C800   1.546       .  S
C798        H804   1.110       .  S
C799        H805   1.085       .  S
C799        C800   1.369       .  D
C800       C1039   1.508       .  S
C801        H806   1.082       .  S
C801        C802   1.369       .  D
C807        C808   1.532       .  S
C807        C813   1.523       .  S
C807        C811   1.549       .  S
C807       C1076   1.540       .  S
C808        H815   1.087       .  S
C808        C809   1.363       .  D
C809       C1019   1.477       .  S
C809        C810   1.542       .  S
C810        C814   1.550       .  S
C810        C812   1.550       .  S
C810        H816   1.109       .  S
C811        H817   1.084       .  S
C811        C812   1.369       .  D
C812       C1006   1.507       .  S
C813        H818   1.087       .  S
C813        C814   1.366       .  D
C819        C820   1.517       .  S
C819        C825   1.529       .  S
C819        C823   1.536       .  S
C819        C996   1.535       .  S
C820        H827   1.084       .  S
C820        C821   1.366       .  D
C821        C918   1.496       .  S
C821        C822   1.563       .  S
C822        C826   1.544       .  S
C822        C824   1.566       .  S
C822        H828   1.110       .  S
C823        H829   1.084       .  S
C823        C824   1.373       .  D
C824       C1009   1.506       .  S
C825        H830   1.087       .  S
C825        C826   1.361       .  D
C826       C1049   1.485       .  S
C831        C832   1.531       .  S
C831        C837   1.536       .  S
C831        C835   1.531       .  S
C831        C999   1.535       .  S
C832        H839   1.087       .  S
C832        C833   1.360       .  D
C833        C989   1.472       .  S
C833        C834   1.529       .  S
C834        C838   1.543       .  S
C834        C836   1.558       .  S
C834        H840   1.099       .  S
C835        H841   1.077       .  S
C835        C836   1.374       .  D
C836        C976   1.509       .  S
C837        H842   1.083       .  S
C837        C838   1.366       .  D
C843        C844   1.528       .  S
C843        C849   1.550       .  S
C843        C847   1.535       .  S
C843       C1026   1.543       .  S
C844        H851   1.087       .  S
C844        C845   1.361       .  D
C845        C959   1.466       .  S
C845        C846   1.526       .  S
C846        C850   1.536       .  S
C846        C848   1.547       .  S
C846        H852   1.106       .  S
C847        H853   1.084       .  S
C847        C848   1.370       .  D
C848        C966   1.498       .  S
C849        H854   1.085       .  S
C849        C850   1.375       .  D
C855        C856   1.521       .  S
C855        C861   1.539       .  S
C855        C859   1.540       .  S
C855        C969   1.546       .  S
C856        H863   1.087       .  S
C856        C857   1.368       .  D
C857        C936   1.496       .  S
C857        C858   1.549       .  S
C858        C862   1.546       .  S
C858        C860   1.553       .  S
C858        H864   1.107       .  S
C859        H865   1.085       .  S
C859        C860   1.374       .  D
C860        C946   1.495       .  S
C861        H866   1.084       .  S
C861        C862   1.364       .  D
C862        C919   1.481       .  S
C867        C868   1.509       .  S
C867        C873   1.532       .  S
C867        C871   1.543       .  S
C867       C1069   1.537       .  S
C868        H875   1.088       .  S
C868        C869   1.364       .  D
C869        C870   1.552       .  S
C870        C874   1.544       .  S
C870        C872   1.548       .  S
C870        H876   1.110       .  S
C871        H877   1.081       .  S
C871        C872   1.376       .  D
C872        C949   1.495       .  S
C873        H878   1.087       .  S
C873        C874   1.364       .  D
C874        C986   1.475       .  S
C879        C880   1.534       .  S
C879        C885   1.526       .  S
C879        C883   1.535       .  S
C879        C979   1.537       .  S
C880        H887   1.087       .  S
C880        C881   1.370       .  D
C881        C939   1.497       .  S
C881        C882   1.544       .  S
C882        C886   1.535       .  S
C882        C884   1.548       .  S
C882        H888   1.105       .  S
C883        H889   1.076       .  S
C883        C884   1.368       .  D
C884        C926   1.484       .  S
C885        H890   1.089       .  S
C885        C886   1.357       .  D
C886        C923   1.457       .  S
C891        C892   1.518       .  S
C891        C897   1.530       .  S
C891        C895   1.541       .  S
C891       C1099   1.548       .  S
C892        H899   1.087       .  S
C892        C893   1.370       .  D
C893        C894   1.547       .  S
C894        C898   1.542       .  S
C894        C896   1.548       .  S
C894        H900   1.108       .  S
C895        H901   1.080       .  S
C895        C896   1.378       .  D
C896        C929   1.494       .  S
C897        H902   1.087       .  S
C897        C898   1.366       .  D
C898        C956   1.479       .  S
O903        C918   1.264       .  A
O903       Al911   1.945       .  S
C904        O914   1.264       .  A
C904        O905   1.264       .  A
O905       Al907   1.891       .  S
O906        C908   1.261       .  A
O906       Al907   1.891       .  S
Al907       O915   1.901       .  S
Al907       O917   1.894       .  S
Al907       O916   1.764       .  S
C908        O921   1.265       .  A
O909        C919   1.264       .  A
O909       Al911   1.899       .  S
O910        C923   1.261       .  A
O910       Al920   1.884       .  S
Al911       O924   1.914       .  S
Al911       O921   1.935       .  S
Al911       O916   1.804       .  S
O912        C919   1.266       .  A
O912       Al920   1.941       .  S
O913        C922   1.268       .  A
O913       Al920   1.957       .  S
O914       Al920   1.942       .  S
O915        C922   1.262       .  A
O916       Al920   1.800       .  S
O917        C918   1.263       .  A
C923        O924   1.261       .  A
C925        C926   1.403       .  A
C925       C2402   1.409       .  A
C925        H932   1.084       .  S
C926        C927   1.409       .  A
C927       C2400   1.389       .  A
C927       Br934   1.921       .  S
C928       C2399   1.389   1_455  A
C928        C929   1.403       .  A
C928        H933   1.083       .  S
C929        C930   1.416       .  A
C930       C2397   1.409   1_455  A
C930       Br931   1.908       .  S
C935        C936   1.409       .  A
C935       C1308   1.395       .  A
C935        H942   1.084       .  S
C936        C937   1.411       .  A
C937       C1306   1.399       .  A
C937       Br944   1.918       .  S
C938       C1305   1.399   1_554  A
C938        C939   1.412       .  A
C938        H943   1.083       .  S
C939        C940   1.412       .  A
C940       C1303   1.395   1_554  A
C940       Br941   1.917       .  S
C945        C946   1.407       .  A
C945        H952   1.083       .  S
C946        C947   1.411       .  A
C947       Br954   1.913       .  S
C948        C949   1.400       .  A
C948        H953   1.083       .  S
C949        C950   1.412       .  A
C950       Br951   1.910       .  S
C955        C956   1.404       .  A
C955       C1328   1.393   1_554  A
C955        H962   1.084       .  S
C956        C957   1.412       .  A
C957       C1326   1.397   1_554  A
C957       Br964   1.904       .  S
C958       C1325   1.397       .  A
C958        C959   1.395       .  A
C958        H963   1.084       .  S
C959        C960   1.406       .  A
C960       C1323   1.393       .  A
C960       Br961   1.921       .  S
C965        C966   1.400       .  A
C965       C2442   1.394   1_455  A
C965        H972   1.080       .  S
C966        C967   1.406       .  A
C967       C2440   1.404   1_455  A
C967       Br974   1.908       .  S
C968       C2439   1.404       .  A
C968        C969   1.418       .  A
C968        H973   1.078       .  S
C969        C970   1.422       .  A
C970       C2437   1.394       .  A
C970       Br971   1.910       .  S
C975        C976   1.413       .  A
C975        H982   1.070       .  S
C976        C977   1.410       .  A
C977       Br984   1.910       .  S
C978        C979   1.414       .  A
C978        H983   1.078       .  S
C979        C980   1.420       .  A
C980       Br981   1.921       .  S
C985        C986   1.404       .  A
C985       C1358   1.396       .  A
C985        H992   1.079       .  S
C986        C987   1.405       .  A
C987       C1356   1.400       .  A
C987       Br994   1.914       .  S
C988       C1355   1.401   1_554  A
C988        C989   1.402       .  A
C988        H993   1.083       .  S
C989        C990   1.404       .  A
C990       C1353   1.397   1_554  A
C990       Br991   1.920       .  S
C995        C996   1.408       .  A
C995       C1000   1.399       .  A
C995       H1002   1.080       .  S
C996        C997   1.425       .  A
C997        C998   1.398       .  A
C997      Br1004   1.929       .  S
C998        C999   1.406       .  A
C998       H1003   1.076       .  S
C999       C1000   1.418       .  A
C1000     Br1001   1.925       .  S
C1005      C1006   1.404       .  A
C1005      C2482   1.397   1_455  A
C1005      H1012   1.084       .  S
C1006      C1007   1.414       .  A
C1007      C2480   1.413   1_455  A
C1007     Br1014   1.908       .  S
C1008      C2479   1.413       .  A
C1008      C1009   1.408       .  A
C1008      H1013   1.083       .  S
C1009      C1010   1.421       .  A
C1010      C2477   1.397       .  A
C1010     Br1011   1.927       .  S
C1015      C1016   1.408       .  A
C1015      C1388   1.408       .  A
C1015      H1022   1.083       .  S
C1016      C1017   1.428       .  A
C1017      C1386   1.393       .  A
C1017     Br1024   1.927       .  S
C1018      C1385   1.392   1_554  A
C1018      C1019   1.392       .  A
C1018      H1023   1.084       .  S
C1019      C1020   1.407       .  A
C1020      C1383   1.408   1_554  A
C1020     Br1021   1.916       .  S
C1025      C1026   1.406       .  A
C1025      C1030   1.401       .  A
C1025      H1032   1.081       .  S
C1026      C1027   1.426       .  A
C1027      C1028   1.403       .  A
C1027     Br1034   1.922       .  S
C1028      C1029   1.404       .  A
C1028      H1033   1.081       .  S
C1029      C1030   1.425       .  A
C1030     Br1031   1.929       .  S
C1035      C1036   1.405       .  A
C1035      H1042   1.083       .  S
C1036      C1037   1.417       .  A
C1037     Br1044   1.917       .  S
C1038      C1039   1.411       .  A
C1038      H1043   1.083       .  S
C1039      C1040   1.414       .  A
C1040     Br1041   1.914       .  S
C1045      C1046   1.399       .  A
C1045      C1418   1.402       .  A
C1045      H1052   1.084       .  S
C1046      C1047   1.409       .  A
C1047      C1416   1.398       .  A
C1047     Br1054   1.913       .  S
C1048      C1415   1.399   1_554  A
C1048      C1049   1.403       .  A
C1048      H1053   1.084       .  S
C1049      C1050   1.412       .  A
C1050      C1413   1.402   1_554  A
C1050     Br1051   1.908       .  S
C1055      C1056   1.403       .  A
C1055      C2532   1.406       .  A
C1055      H1062   1.083       .  S
C1056      C1057   1.417       .  A
C1057      C2530   1.393       .  A
C1057     Br1064   1.929       .  S
C1058      C2529   1.393   1_455  A
C1058      C1059   1.410       .  A
C1058      H1063   1.080       .  S
C1059      C1060   1.426   1_455  A
C1060      C2527   1.407       .  A
C1060     Br1061   1.918   1_655  S
C1065      C1066   1.412       .  A
C1065      C1070   1.402       .  A
C1065      H1072   1.077       .  S
C1066      C1067   1.413       .  A
C1067      C1068   1.395       .  A
C1067     Br1074   1.920       .  S
C1068      C1069   1.411       .  A
C1068      H1073   1.083       .  S
C1069      C1070   1.418       .  A
C1070     Br1071   1.917       .  S
C1075      C1076   1.405       .  A
C1075      H1082   1.080       .  S
C1076      C1077   1.420       .  A
C1077     Br1084   1.916       .  S
C1078      C1079   1.404       .  A
C1078      H1083   1.083       .  S
C1079      C1080   1.426       .  A
C1080     Br1081   1.931       .  S
C1085      C1086   1.403       .  A
C1085      C1458   1.401       .  A
C1085      H1092   1.084       .  S
C1086      C1087   1.405       .  A
C1087      C1456   1.407       .  A
C1087     Br1094   1.915       .  S
C1088      C1455   1.407   1_554  A
C1088      C1089   1.406       .  A
C1088      H1093   1.084       .  S
C1089      C1090   1.411       .  A
C1090      C1453   1.400   1_554  A
C1090     Br1091   1.914       .  S
C1095      C1096   1.416       .  A
C1095      C1100   1.405       .  A
C1095      H1102   1.065       .  S
C1096      C1097   1.416       .  A
C1097      C1098   1.402       .  A
C1097     Br1104   1.924       .  S
C1098      C1099   1.414       .  A
C1098      H1103   1.082       .  S
C1099      C1100   1.419       .  A
C1100     Br1101   1.921       .  S
O1105      C1120   1.263       .  A
O1105     Al1113   1.943       .  S
C1106      O1116   1.263       .  A
C1106      O1107   1.259       .  A
C1106      C1237   1.485       .  S
O1107     Al1109   1.870       .  S
O1108      C1110   1.261       .  A
O1108     Al1109   1.887       .  S
Al1109     O1117   1.878       .  S
Al1109     O1119   1.861       .  S
Al1109     O1118   1.772       .  S
C1110      O1123   1.267       .  A
C1110      C1218   1.479       .  S
O1111      C1121   1.266       .  A
O1111     Al1113   1.904       .  S
O1112      C1125   1.262       .  A
O1112     Al1122   1.881       .  S
Al1113     O1126   1.924       .  S
Al1113     O1123   1.942       .  S
Al1113     O1118   1.796       .  S
O1114      C1121   1.263       .  A
O1114     Al1122   1.933       .  S
O1115      C1124   1.266       .  A
O1115     Al1122   1.952       .  S
O1116     Al1122   1.933       .  S
O1117      C1124   1.257       .  A
O1118     Al1122   1.808       .  S
O1119      C1120   1.253       .  A
C1120      C1261   1.486       .  S
C1121      C1170   1.487       .  S
C1124      C1206   1.476       .  S
C1125      O1126   1.263       .  A
C1125      C1182   1.471       .  S
C1127      C1128   1.540       .  S
C1127      C1133   1.532       .  S
C1127      C1131   1.547       .  S
C1127      C1464   1.551       .  S
C1128      H1135   1.087       .  S
C1128      C1129   1.362       .  D
C1129      C1457   1.488       .  S
C1129      C1130   1.538       .  S
C1130      C1134   1.556       .  S
C1130      C1132   1.551       .  S
C1130      H1136   1.108       .  S
C1131      H1137   1.067       .  S
C1131      C1132   1.365       .  D
C1132      C1447   1.506       .  S
C1133      H1138   1.086       .  S
C1133      C1134   1.374       .  D
C1134      C1290   1.492       .  S
C1139      C1140   1.537       .  S
C1139      C1145   1.528       .  S
C1139      C1143   1.544       .  S
C1139      C1434   1.539       .  S
C1140      H1147   1.087       .  S
C1140      C1141   1.361       .  D
C1141      C1414   1.480       .  S
C1141      C1142   1.538       .  S
C1142      C1146   1.550       .  S
C1142      C1144   1.547       .  S
C1142      H1148   1.109       .  S
C1143      H1149   1.077       .  S
C1143      C1144   1.364       .  D
C1144      C1424   1.499       .  S
C1145      H1150   1.087       .  S
C1145      C1146   1.371       .  D
C1146      C1276   1.477       .  S
C1151      C1152   1.512       .  S
C1151      C1157   1.528       .  S
C1151      C1155   1.542       .  S
C1151      C1397   1.541       .  S
C1152      H1159   1.086       .  S
C1152      C1153   1.364       .  D
C1153      C1272   1.494       .  S
C1153      C1154   1.562       .  S
C1154      C1158   1.545       .  S
C1154      C1156   1.564       .  S
C1154      H1160   1.109       .  S
C1155      H1161   1.085       .  S
C1155      C1156   1.381       .  D
C1156      C1404   1.511       .  S
C1157      H1162   1.087       .  S
C1157      C1158   1.363       .  D
C1158      C1454   1.483       .  S
C1163      C1164   1.522       .  S
C1163      C1169   1.524       .  S
C1163      C1167   1.555       .  S
C1163      C1427   1.542       .  S
C1164      H1171   1.085       .  S
C1164      C1165   1.358       .  D
C1165      C1384   1.499       .  S
C1165      C1166   1.558       .  S
C1166      C1170   1.565       .  S
C1166      C1168   1.546       .  S
C1166      H1172   1.110       .  S
C1167      H1173   1.085       .  S
C1167      C1168   1.369       .  D
C1168      C1407   1.508       .  S
C1169      H1174   1.082       .  S
C1169      C1170   1.368       .  D
C1175      C1176   1.532       .  S
C1175      C1181   1.522       .  S
C1175      C1179   1.548       .  S
C1175      C1444   1.539       .  S
C1176      H1183   1.087       .  S
C1176      C1177   1.363       .  D
C1177      C1387   1.478       .  S
C1177      C1178   1.543       .  S
C1178      C1182   1.551       .  S
C1178      C1180   1.550       .  S
C1178      H1184   1.109       .  S
C1179      H1185   1.084       .  S
C1179      C1180   1.369       .  D
C1180      C1374   1.506       .  S
C1181      H1186   1.086       .  S
C1181      C1182   1.365       .  D
C1187      C1188   1.517       .  S
C1187      C1193   1.529       .  S
C1187      C1191   1.536       .  S
C1187      C1364   1.535       .  S
C1188      H1195   1.084       .  S
C1188      C1189   1.366       .  D
C1189      C1286   1.496       .  S
C1189      C1190   1.562       .  S
C1190      C1194   1.544       .  S
C1190      C1192   1.566       .  S
C1190      H1196   1.110       .  S
C1191      H1197   1.084       .  S
C1191      C1192   1.373       .  D
C1192      C1377   1.506       .  S
C1193      H1198   1.087       .  S
C1193      C1194   1.361       .  D
C1194      C1417   1.485       .  S
C1199      C1200   1.531       .  S
C1199      C1205   1.536       .  S
C1199      C1203   1.531       .  S
C1199      C1367   1.535       .  S
C1200      H1207   1.087       .  S
C1200      C1201   1.359       .  D
C1201      C1357   1.472       .  S
C1201      C1202   1.529       .  S
C1202      C1206   1.542       .  S
C1202      C1204   1.558       .  S
C1202      H1208   1.098       .  S
C1203      H1209   1.078       .  S
C1203      C1204   1.374       .  D
C1204      C1344   1.508       .  S
C1205      H1210   1.083       .  S
C1205      C1206   1.366       .  D
C1211      C1212   1.528       .  S
C1211      C1217   1.550       .  S
C1211      C1215   1.535       .  S
C1211      C1394   1.543       .  S
C1212      H1219   1.087       .  S
C1212      C1213   1.361       .  D
C1213      C1327   1.466       .  S
C1213      C1214   1.526       .  S
C1214      C1218   1.536       .  S
C1214      C1216   1.547       .  S
C1214      H1220   1.107       .  S
C1215      H1221   1.084       .  S
C1215      C1216   1.370       .  D
C1216      C1334   1.498       .  S
C1217      H1222   1.085       .  S
C1217      C1218   1.375       .  D
C1223      C1224   1.521       .  S
C1223      C1229   1.539       .  S
C1223      C1227   1.541       .  S
C1223      C1337   1.546       .  S
C1224      H1231   1.087       .  S
C1224      C1225   1.368       .  D
C1225      C1304   1.496       .  S
C1225      C1226   1.549       .  S
C1226      C1230   1.546       .  S
C1226      C1228   1.553       .  S
C1226      H1232   1.107       .  S
C1227      H1233   1.085       .  S
C1227      C1228   1.374       .  D
C1228      C1314   1.496       .  S
C1229      H1234   1.084       .  S
C1229      C1230   1.364       .  D
C1230      C1287   1.481       .  S
C1235      C1236   1.509       .  S
C1235      C1241   1.532       .  S
C1235      C1239   1.544       .  S
C1235      C1437   1.537       .  S
C1236      H1243   1.088       .  S
C1236      C1237   1.364       .  D
C1237      C1238   1.552       .  S
C1238      C1242   1.544       .  S
C1238      C1240   1.548       .  S
C1238      H1244   1.110       .  S
C1239      H1245   1.081       .  S
C1239      C1240   1.376       .  D
C1240      C1317   1.495       .  S
C1241      H1246   1.087       .  S
C1241      C1242   1.364       .  D
C1242      C1354   1.475       .  S
C1247      C1248   1.533       .  S
C1247      C1253   1.526       .  S
C1247      C1251   1.535       .  S
C1247      C1347   1.537       .  S
C1248      H1255   1.087       .  S
C1248      C1249   1.369       .  D
C1249      C1307   1.497       .  S
C1249      C1250   1.544       .  S
C1250      C1254   1.535       .  S
C1250      C1252   1.548       .  S
C1250      H1256   1.105       .  S
C1251      H1257   1.077       .  S
C1251      C1252   1.368       .  D
C1252      C1294   1.484       .  S
C1253      H1258   1.089       .  S
C1253      C1254   1.357       .  D
C1254      C1291   1.457       .  S
C1259      C1260   1.518       .  S
C1259      C1265   1.530       .  S
C1259      C1263   1.541       .  S
C1259      C1467   1.549       .  S
C1260      H1267   1.087       .  S
C1260      C1261   1.370       .  D
C1261      C1262   1.547       .  S
C1262      C1266   1.542       .  S
C1262      C1264   1.548       .  S
C1262      H1268   1.108       .  S
C1263      H1269   1.080       .  S
C1263      C1264   1.378       .  D
C1264      C1297   1.495       .  S
C1265      H1270   1.087       .  S
C1265      C1266   1.366       .  D
C1266      C1324   1.480       .  S
O1271      C1286   1.264       .  A
O1271     Al1279   1.945       .  S
C1272      O1282   1.264       .  A
C1272      O1273   1.264       .  A
O1273     Al1275   1.890       .  S
O1274      C1276   1.261       .  A
O1274     Al1275   1.891       .  S
Al1275     O1283   1.900       .  S
Al1275     O1285   1.893       .  S
Al1275     O1284   1.764       .  S
C1276      O1289   1.265       .  A
O1277      C1287   1.264       .  A
O1277     Al1279   1.899       .  S
O1278      C1291   1.261       .  A
O1278     Al1288   1.883       .  S
Al1279     O1292   1.914       .  S
Al1279     O1289   1.936       .  S
Al1279     O1284   1.804       .  S
O1280      C1287   1.266       .  A
O1280     Al1288   1.941       .  S
O1281      C1290   1.268       .  A
O1281     Al1288   1.956       .  S
O1282     Al1288   1.941       .  S
O1283      C1290   1.262       .  A
O1284     Al1288   1.800       .  S
O1285      C1286   1.263       .  A
C1291      O1292   1.261       .  A
C1293      C1294   1.402       .  A
C1293      C2770   1.409       .  A
C1293      H1300   1.084       .  S
C1294      C1295   1.409       .  A
C1295      C2768   1.390       .  A
C1295     Br1302   1.921       .  S
C1296      C2767   1.390   1_455  A
C1296      C1297   1.403       .  A
C1296      H1301   1.083       .  S
C1297      C1298   1.416       .  A
C1298      C2765   1.409   1_455  A
C1298     Br1299   1.908       .  S
C1303      C1304   1.408       .  A
C1303      H1310   1.084       .  S
C1304      C1305   1.411       .  A
C1305     Br1312   1.918       .  S
C1306      C1307   1.412       .  A
C1306      H1311   1.083       .  S
C1307      C1308   1.412       .  A
C1308     Br1309   1.917       .  S
C1313      C1314   1.407       .  A
C1313      H1320   1.083       .  S
C1314      C1315   1.411       .  A
C1315     Br1322   1.912       .  S
C1316      C1317   1.400       .  A
C1316      H1321   1.082       .  S
C1317      C1318   1.412       .  A
C1318     Br1319   1.910       .  S
C1323      C1324   1.404       .  A
C1323      H1330   1.084       .  S
C1324      C1325   1.413       .  A
C1325     Br1332   1.904       .  S
C1326      C1327   1.395       .  A
C1326      H1331   1.084       .  S
C1327      C1328   1.406       .  A
C1328     Br1329   1.921       .  S
C1333      C1334   1.400       .  A
C1333      C2810   1.394   1_455  A
C1333      H1340   1.080       .  S
C1334      C1335   1.406       .  A
C1335      C2808   1.404   1_455  A
C1335     Br1342   1.908       .  S
C1336      C2807   1.404       .  A
C1336      C1337   1.418       .  A
C1336      H1341   1.078       .  S
C1337      C1338   1.422       .  A
C1338      C2805   1.394       .  A
C1338     Br1339   1.910       .  S
C1343      C1344   1.413       .  A
C1343      H1350   1.073       .  S
C1344      C1345   1.409       .  A
C1345     Br1352   1.910       .  S
C1346      C1347   1.414       .  A
C1346      H1351   1.078       .  S
C1347      C1348   1.420       .  A
C1348     Br1349   1.921       .  S
C1353      C1354   1.404       .  A
C1353      H1360   1.076       .  S
C1354      C1355   1.405       .  A
C1355     Br1362   1.914       .  S
C1356      C1357   1.402       .  A
C1356      H1361   1.083       .  S
C1357      C1358   1.404       .  A
C1358     Br1359   1.920       .  S
C1363      C1364   1.408       .  A
C1363      C1368   1.399       .  A
C1363      H1370   1.080       .  S
C1364      C1365   1.425       .  A
C1365      C1366   1.398       .  A
C1365     Br1372   1.929       .  S
C1366      C1367   1.406       .  A
C1366      H1371   1.076       .  S
C1367      C1368   1.418       .  A
C1368     Br1369   1.925       .  S
C1373      C1374   1.404       .  A
C1373      C2850   1.397   1_455  A
C1373      H1380   1.084       .  S
C1374      C1375   1.414       .  A
C1375      C2848   1.413   1_455  A
C1375     Br1382   1.908       .  S
C1376      C2847   1.413       .  A
C1376      C1377   1.408       .  A
C1376      H1381   1.083       .  S
C1377      C1378   1.421       .  A
C1378      C2845   1.397       .  A
C1378     Br1379   1.927       .  S
C1383      C1384   1.408       .  A
C1383      H1390   1.083       .  S
C1384      C1385   1.428       .  A
C1385     Br1392   1.927       .  S
C1386      C1387   1.392       .  A
C1386      H1391   1.084       .  S
C1387      C1388   1.407       .  A
C1388     Br1389   1.916       .  S
C1393      C1394   1.406       .  A
C1393      C1398   1.402       .  A
C1393      H1400   1.081       .  S
C1394      C1395   1.426       .  A
C1395      C1396   1.404       .  A
C1395     Br1402   1.922       .  S
C1396      C1397   1.404       .  A
C1396      H1401   1.081       .  S
C1397      C1398   1.426       .  A
C1398     Br1399   1.929       .  S
C1403      C1404   1.405       .  A
C1403      H1410   1.083       .  S
C1404      C1405   1.417       .  A
C1405     Br1412   1.917       .  S
C1406      C1407   1.411       .  A
C1406      H1411   1.083       .  S
C1407      C1408   1.414       .  A
C1408     Br1409   1.914       .  S
C1413      C1414   1.399       .  A
C1413      H1420   1.084       .  S
C1414      C1415   1.409       .  A
C1415     Br1422   1.914       .  S
C1416      C1417   1.403       .  A
C1416      H1421   1.084       .  S
C1417      C1418   1.413       .  A
C1418     Br1419   1.908       .  S
C1423      C1424   1.403       .  A
C1423      C2900   1.406       .  A
C1423      H1430   1.083       .  S
C1424      C1425   1.417       .  A
C1425      C2898   1.393       .  A
C1425     Br1432   1.929       .  S
C1426      C2897   1.393   1_455  A
C1426      C1427   1.410       .  A
C1426      H1431   1.079       .  S
C1427      C1428   1.426   1_455  A
C1428      C2895   1.406       .  A
C1428     Br1429   1.918   1_655  S
C1433      C1434   1.412       .  A
C1433      C1438   1.402       .  A
C1433      H1440   1.077       .  S
C1434      C1435   1.413       .  A
C1435      C1436   1.395       .  A
C1435     Br1442   1.921       .  S
C1436      C1437   1.411       .  A
C1436      H1441   1.083       .  S
C1437      C1438   1.418       .  A
C1438     Br1439   1.917       .  S
C1443      C1444   1.405       .  A
C1443      H1450   1.080       .  S
C1444      C1445   1.420       .  A
C1445     Br1452   1.916       .  S
C1446      C1447   1.405       .  A
C1446      H1451   1.082       .  S
C1447      C1448   1.426       .  A
C1448     Br1449   1.931       .  S
C1453      C1454   1.402       .  A
C1453      H1460   1.084       .  S
C1454      C1455   1.406       .  A
C1455     Br1462   1.915       .  S
C1456      C1457   1.406       .  A
C1456      H1461   1.084       .  S
C1457      C1458   1.410       .  A
C1458     Br1459   1.915       .  S
C1463      C1464   1.416       .  A
C1463      C1468   1.405       .  A
C1463      H1470   1.065       .  S
C1464      C1465   1.416       .  A
C1465      C1466   1.402       .  A
C1465     Br1472   1.924       .  S
C1466      C1467   1.414       .  A
C1466      H1471   1.082       .  S
C1467      C1468   1.419       .  A
C1468     Br1469   1.921       .  S
O1473      C1488   1.263       .  A
O1473     Al1481   1.943       .  S
C1474      O1484   1.263       .  A
C1474      O1475   1.259       .  A
C1474      C1605   1.484       .  S
O1475     Al1477   1.870       .  S
O1476      C1478   1.261       .  A
O1476     Al1477   1.887       .  S
Al1477     O1485   1.878       .  S
Al1477     O1487   1.861       .  S
Al1477     O1486   1.772       .  S
C1478      O1491   1.267       .  A
C1478      C1586   1.479       .  S
O1479      C1489   1.266       .  A
O1479     Al1481   1.904       .  S
O1480      C1493   1.262       .  A
O1480     Al1490   1.881       .  S
Al1481     O1494   1.924       .  S
Al1481     O1491   1.942       .  S
Al1481     O1486   1.796       .  S
O1482      C1489   1.263       .  A
O1482     Al1490   1.933       .  S
O1483      C1492   1.266       .  A
O1483     Al1490   1.952       .  S
O1484     Al1490   1.933       .  S
O1485      C1492   1.257       .  A
O1486     Al1490   1.808       .  S
O1487      C1488   1.253       .  A
C1488      C1629   1.486       .  S
C1489      C1538   1.486       .  S
C1492      C1574   1.476       .  S
C1493      O1494   1.263       .  A
C1493      C1550   1.471       .  S
C1495      C1496   1.540       .  S
C1495      C1501   1.532       .  S
C1495      C1499   1.546       .  S
C1495      C1832   1.551       .  S
C1496      H1503   1.087       .  S
C1496      C1497   1.362       .  D
C1497      C1825   1.488       .  S
C1497      C1498   1.538       .  S
C1498      C1502   1.556       .  S
C1498      C1500   1.551       .  S
C1498      H1504   1.108       .  S
C1499      H1505   1.067       .  S
C1499      C1500   1.365       .  D
C1500      C1815   1.506       .  S
C1501      H1506   1.086       .  S
C1501      C1502   1.374       .  D
C1502      C1658   1.492       .  S
C1507      C1508   1.537       .  S
C1507      C1513   1.528       .  S
C1507      C1511   1.544       .  S
C1507      C1802   1.539       .  S
C1508      H1515   1.087       .  S
C1508      C1509   1.361       .  D
C1509      C1782   1.480       .  S
C1509      C1510   1.538       .  S
C1510      C1514   1.550       .  S
C1510      C1512   1.547       .  S
C1510      H1516   1.109       .  S
C1511      H1517   1.077       .  S
C1511      C1512   1.364       .  D
C1512      C1792   1.499       .  S
C1513      H1518   1.087       .  S
C1513      C1514   1.371       .  D
C1514      C1644   1.477       .  S
C1519      C1520   1.512       .  S
C1519      C1525   1.528       .  S
C1519      C1523   1.542       .  S
C1519      C1765   1.541       .  S
C1520      H1527   1.086       .  S
C1520      C1521   1.364       .  D
C1521      C1640   1.494       .  S
C1521      C1522   1.562       .  S
C1522      C1526   1.545       .  S
C1522      C1524   1.564       .  S
C1522      H1528   1.109       .  S
C1523      H1529   1.085       .  S
C1523      C1524   1.381       .  D
C1524      C1772   1.511       .  S
C1525      H1530   1.087       .  S
C1525      C1526   1.363       .  D
C1526      C1822   1.483       .  S
C1531      C1532   1.522       .  S
C1531      C1537   1.523       .  S
C1531      C1535   1.555       .  S
C1531      C1795   1.542       .  S
C1532      H1539   1.085       .  S
C1532      C1533   1.358       .  D
C1533      C1752   1.499       .  S
C1533      C1534   1.558       .  S
C1534      C1538   1.565       .  S
C1534      C1536   1.546       .  S
C1534      H1540   1.110       .  S
C1535      H1541   1.085       .  S
C1535      C1536   1.369       .  D
C1536      C1775   1.508       .  S
C1537      H1542   1.082       .  S
C1537      C1538   1.368       .  D
C1543      C1544   1.532       .  S
C1543      C1549   1.522       .  S
C1543      C1547   1.548       .  S
C1543      C1812   1.539       .  S
C1544      H1551   1.087       .  S
C1544      C1545   1.363       .  D
C1545      C1755   1.478       .  S
C1545      C1546   1.543       .  S
C1546      C1550   1.551       .  S
C1546      C1548   1.550       .  S
C1546      H1552   1.109       .  S
C1547      H1553   1.084       .  S
C1547      C1548   1.369       .  D
C1548      C1742   1.506       .  S
C1549      H1554   1.086       .  S
C1549      C1550   1.365       .  D
C1555      C1556   1.517       .  S
C1555      C1561   1.529       .  S
C1555      C1559   1.536       .  S
C1555      C1732   1.535       .  S
C1556      H1563   1.084       .  S
C1556      C1557   1.366       .  D
C1557      C1654   1.496       .  S
C1557      C1558   1.562       .  S
C1558      C1562   1.544       .  S
C1558      C1560   1.566       .  S
C1558      H1564   1.110       .  S
C1559      H1565   1.084       .  S
C1559      C1560   1.373       .  D
C1560      C1745   1.506       .  S
C1561      H1566   1.087       .  S
C1561      C1562   1.361       .  D
C1562      C1785   1.485       .  S
C1567      C1568   1.531       .  S
C1567      C1573   1.536       .  S
C1567      C1571   1.531       .  S
C1567      C1735   1.535       .  S
C1568      H1575   1.087       .  S
C1568      C1569   1.359       .  D
C1569      C1725   1.472       .  S
C1569      C1570   1.529       .  S
C1570      C1574   1.542       .  S
C1570      C1572   1.558       .  S
C1570      H1576   1.098       .  S
C1571      H1577   1.078       .  S
C1571      C1572   1.374       .  D
C1572      C1712   1.508       .  S
C1573      H1578   1.083       .  S
C1573      C1574   1.366       .  D
C1579      C1580   1.528       .  S
C1579      C1585   1.550       .  S
C1579      C1583   1.535       .  S
C1579      C1762   1.543       .  S
C1580      H1587   1.087       .  S
C1580      C1581   1.361       .  D
C1581      C1695   1.466       .  S
C1581      C1582   1.526       .  S
C1582      C1586   1.536       .  S
C1582      C1584   1.547       .  S
C1582      H1588   1.107       .  S
C1583      H1589   1.084       .  S
C1583      C1584   1.370       .  D
C1584      C1702   1.498       .  S
C1585      H1590   1.085       .  S
C1585      C1586   1.375       .  D
C1591      C1592   1.521       .  S
C1591      C1597   1.539       .  S
C1591      C1595   1.541       .  S
C1591      C1705   1.546       .  S
C1592      H1599   1.087       .  S
C1592      C1593   1.368       .  D
C1593      C1672   1.496       .  S
C1593      C1594   1.549       .  S
C1594      C1598   1.546       .  S
C1594      C1596   1.553       .  S
C1594      H1600   1.107       .  S
C1595      H1601   1.085       .  S
C1595      C1596   1.374       .  D
C1596      C1682   1.495       .  S
C1597      H1602   1.084       .  S
C1597      C1598   1.364       .  D
C1598      C1655   1.481       .  S
C1603      C1604   1.509       .  S
C1603      C1609   1.532       .  S
C1603      C1607   1.544       .  S
C1603      C1805   1.537       .  S
C1604      H1611   1.088       .  S
C1604      C1605   1.364       .  D
C1605      C1606   1.552       .  S
C1606      C1610   1.544       .  S
C1606      C1608   1.548       .  S
C1606      H1612   1.110       .  S
C1607      H1613   1.081       .  S
C1607      C1608   1.376       .  D
C1608      C1685   1.495       .  S
C1609      H1614   1.087       .  S
C1609      C1610   1.364       .  D
C1610      C1722   1.475       .  S
C1615      C1616   1.533       .  S
C1615      C1621   1.526       .  S
C1615      C1619   1.535       .  S
C1615      C1715   1.537       .  S
C1616      H1623   1.087       .  S
C1616      C1617   1.369       .  D
C1617      C1675   1.497       .  S
C1617      C1618   1.544       .  S
C1618      C1622   1.535       .  S
C1618      C1620   1.548       .  S
C1618      H1624   1.105       .  S
C1619      H1625   1.077       .  S
C1619      C1620   1.368       .  D
C1620      C1662   1.484       .  S
C1621      H1626   1.089       .  S
C1621      C1622   1.357       .  D
C1622      C1659   1.457       .  S
C1627      C1628   1.518       .  S
C1627      C1633   1.530       .  S
C1627      C1631   1.541       .  S
C1627      C1835   1.549       .  S
C1628      H1635   1.087       .  S
C1628      C1629   1.370       .  D
C1629      C1630   1.547       .  S
C1630      C1634   1.542       .  S
C1630      C1632   1.548       .  S
C1630      H1636   1.108       .  S
C1631      H1637   1.080       .  S
C1631      C1632   1.378       .  D
C1632      C1665   1.495       .  S
C1633      H1638   1.087       .  S
C1633      C1634   1.366       .  D
C1634      C1692   1.480       .  S
O1639      C1654   1.264       .  A
O1639     Al1647   1.945       .  S
C1640      O1650   1.264       .  A
C1640      O1641   1.264       .  A
O1641     Al1643   1.890       .  S
O1642      C1644   1.261       .  A
O1642     Al1643   1.891       .  S
Al1643     O1651   1.900       .  S
Al1643     O1653   1.893       .  S
Al1643     O1652   1.764       .  S
C1644      O1657   1.265       .  A
O1645      C1655   1.264       .  A
O1645     Al1647   1.899       .  S
O1646      C1659   1.261       .  A
O1646     Al1656   1.883       .  S
Al1647     O1660   1.914       .  S
Al1647     O1657   1.936       .  S
Al1647     O1652   1.804       .  S
O1648      C1655   1.266       .  A
O1648     Al1656   1.941       .  S
O1649      C1658   1.268       .  A
O1649     Al1656   1.956       .  S
O1650     Al1656   1.941       .  S
O1651      C1658   1.262       .  A
O1652     Al1656   1.800       .  S
O1653      C1654   1.263       .  A
C1659      O1660   1.261       .  A
C1661      C1662   1.402       .  A
C1661      H1668   1.084       .  S
C1662      C1663   1.409       .  A
C1663     Br1670   1.921       .  S
C1664      C1665   1.403       .  A
C1664      H1669   1.083       .  S
C1665      C1666   1.416       .  A
C1666     Br1667   1.908       .  S
C1671      C1672   1.408       .  A
C1671      C2044   1.395       .  A
C1671      H1678   1.084       .  S
C1672      C1673   1.411       .  A
C1673      C2042   1.399       .  A
C1673     Br1680   1.918       .  S
C1674      C2041   1.399   1_554  A
C1674      C1675   1.412       .  A
C1674      H1679   1.083       .  S
C1675      C1676   1.412       .  A
C1676      C2039   1.395   1_554  A
C1676     Br1677   1.917       .  S
C1681      C1682   1.407       .  A
C1681      C2422   1.414   1_545  A
C1681      H1688   1.083       .  S
C1682      C1683   1.411       .  A
C1683      C2420   1.393   1_545  A
C1683     Br1690   1.912       .  S
C1684      C2419   1.393       .  A
C1684      C1685   1.400       .  A
C1684      H1689   1.082       .  S
C1685      C1686   1.412       .  A
C1686      C2417   1.413       .  A
C1686     Br1687   1.910       .  S
C1691      C1692   1.404       .  A
C1691      C2064   1.393   1_554  A
C1691      H1698   1.084       .  S
C1692      C1693   1.413       .  A
C1693      C2062   1.397   1_554  A
C1693     Br1700   1.904       .  S
C1694      C2061   1.397       .  A
C1694      C1695   1.395       .  A
C1694      H1699   1.084       .  S
C1695      C1696   1.406       .  A
C1696      C2059   1.393       .  A
C1696     Br1697   1.921       .  S
C1701      C1702   1.400       .  A
C1701      H1708   1.080       .  S
C1702      C1703   1.406       .  A
C1703     Br1710   1.908       .  S
C1704      C1705   1.418       .  A
C1704      H1709   1.078       .  S
C1705      C1706   1.422       .  A
C1706     Br1707   1.910       .  S
C1711      C1712   1.413       .  A
C1711      C2452   1.398       .  A
C1711      H1718   1.073       .  S
C1712      C1713   1.409       .  A
C1713      C2450   1.394       .  A
C1713     Br1720   1.910       .  S
C1714      C2449   1.394   1_545  A
C1714      C1715   1.414       .  A
C1714      H1719   1.078       .  S
C1715      C1716   1.420       .  A
C1716      C2447   1.398   1_545  A
C1716     Br1717   1.921       .  S
C1721      C1722   1.404       .  A
C1721      C2094   1.397       .  A
C1721      H1728   1.076       .  S
C1722      C1723   1.405       .  A
C1723      C2092   1.401       .  A
C1723     Br1730   1.914       .  S
C1724      C2091   1.400   1_554  A
C1724      C1725   1.402       .  A
C1724      H1729   1.083       .  S
C1725      C1726   1.404       .  A
C1726      C2089   1.396   1_554  A
C1726     Br1727   1.920       .  S
C1731      C1732   1.408       .  A
C1731      C1736   1.399       .  A
C1731      H1738   1.080       .  S
C1732      C1733   1.425       .  A
C1733      C1734   1.398       .  A
C1733     Br1740   1.929       .  S
C1734      C1735   1.406       .  A
C1734      H1739   1.076       .  S
C1735      C1736   1.418       .  A
C1736     Br1737   1.925       .  S
C1741      C1742   1.404       .  A
C1741      H1748   1.084       .  S
C1742      C1743   1.414       .  A
C1743     Br1750   1.908       .  S
C1744      C1745   1.408       .  A
C1744      H1749   1.083       .  S
C1745      C1746   1.421       .  A
C1746     Br1747   1.927       .  S
C1751      C1752   1.408       .  A
C1751      C2124   1.408       .  A
C1751      H1758   1.083       .  S
C1752      C1753   1.428       .  A
C1753      C2122   1.392       .  A
C1753     Br1760   1.927       .  S
C1754      C2121   1.393   1_554  A
C1754      C1755   1.392       .  A
C1754      H1759   1.084       .  S
C1755      C1756   1.407       .  A
C1756      C2119   1.408   1_554  A
C1756     Br1757   1.916       .  S
C1761      C1762   1.406       .  A
C1761      C1766   1.401       .  A
C1761      H1768   1.081       .  S
C1762      C1763   1.426       .  A
C1763      C1764   1.404       .  A
C1763     Br1770   1.922       .  S
C1764      C1765   1.404       .  A
C1764      H1769   1.081       .  S
C1765      C1766   1.426       .  A
C1766     Br1767   1.929       .  S
C1771      C1772   1.405       .  A
C1771      C2512   1.398   1_545  A
C1771      H1778   1.083       .  S
C1772      C1773   1.417       .  A
C1773      C2510   1.419   1_545  A
C1773     Br1780   1.917       .  S
C1774      C2509   1.419       .  A
C1774      C1775   1.411       .  A
C1774      H1779   1.083       .  S
C1775      C1776   1.414       .  A
C1776      C2507   1.398       .  A
C1776     Br1777   1.914       .  S
C1781      C1782   1.399       .  A
C1781      C2154   1.402       .  A
C1781      H1788   1.084       .  S
C1782      C1783   1.409       .  A
C1783      C2152   1.399       .  A
C1783     Br1790   1.914       .  S
C1784      C2151   1.398   1_554  A
C1784      C1785   1.403       .  A
C1784      H1789   1.084       .  S
C1785      C1786   1.413       .  A
C1786      C2149   1.402   1_554  A
C1786     Br1787   1.908       .  S
C1791      C1792   1.403       .  A
C1791      H1798   1.083       .  S
C1792      C1793   1.417       .  A
C1793     Br1800   1.929       .  S
C1794      C1795   1.410       .  A
C1794      H1799   1.079       .  S
C1795      C1796   1.426       .  A
C1796     Br1797   1.918       .  S
C1801      C1802   1.412       .  A
C1801      C1806   1.402       .  A
C1801      H1808   1.077       .  S
C1802      C1803   1.413       .  A
C1803      C1804   1.395       .  A
C1803     Br1810   1.921       .  S
C1804      C1805   1.411       .  A
C1804      H1809   1.083       .  S
C1805      C1806   1.418       .  A
C1806     Br1807   1.917       .  S
C1811      C1812   1.405       .  A
C1811      C2552   1.394       .  A
C1811      H1818   1.080       .  S
C1812      C1813   1.420       .  A
C1813      C2550   1.402       .  A
C1813     Br1820   1.916       .  S
C1814      C2549   1.402   1_545  A
C1814      C1815   1.405       .  A
C1814      H1819   1.081       .  S
C1815      C1816   1.426       .  A
C1816      C2547   1.394   1_545  A
C1816     Br1817   1.931       .  S
C1821      C1822   1.402       .  A
C1821      C2194   1.400       .  A
C1821      H1828   1.084       .  S
C1822      C1823   1.406       .  A
C1823      C2192   1.407       .  A
C1823     Br1830   1.915       .  S
C1824      C2191   1.407   1_554  A
C1824      C1825   1.406       .  A
C1824      H1829   1.084       .  S
C1825      C1826   1.410       .  A
C1826      C2189   1.401   1_554  A
C1826     Br1827   1.915       .  S
C1831      C1832   1.416       .  A
C1831      C1836   1.405       .  A
C1831      H1838   1.065       .  S
C1832      C1833   1.416       .  A
C1833      C1834   1.402       .  A
C1833     Br1840   1.924       .  S
C1834      C1835   1.414       .  A
C1834      H1839   1.082       .  S
C1835      C1836   1.419       .  A
C1836     Br1837   1.921       .  S
O1841      C1856   1.263       .  A
O1841     Al1849   1.943       .  S
C1842      O1852   1.263       .  A
C1842      O1843   1.259       .  A
C1842      C1973   1.484       .  S
O1843     Al1845   1.871       .  S
O1844      C1846   1.261       .  A
O1844     Al1845   1.887       .  S
Al1845     O1853   1.878       .  S
Al1845     O1855   1.862       .  S
Al1845     O1854   1.772       .  S
C1846      O1859   1.267       .  A
C1846      C1954   1.479       .  S
O1847      C1857   1.266       .  A
O1847     Al1849   1.904       .  S
O1848      C1861   1.262       .  A
O1848     Al1858   1.880       .  S
Al1849     O1862   1.924       .  S
Al1849     O1859   1.941       .  S
Al1849     O1854   1.795       .  S
O1850      C1857   1.263       .  A
O1850     Al1858   1.934       .  S
O1851      C1860   1.266       .  A
O1851     Al1858   1.953       .  S
O1852     Al1858   1.932       .  S
O1853      C1860   1.257       .  A
O1854     Al1858   1.808       .  S
O1855      C1856   1.253       .  A
C1856      C1997   1.486       .  S
C1857      C1906   1.487       .  S
C1860      C1942   1.476       .  S
C1861      O1862   1.263       .  A
C1861      C1918   1.471       .  S
C1863      C1864   1.540       .  S
C1863      C1869   1.533       .  S
C1863      C1867   1.546       .  S
C1863      C2200   1.551       .  S
C1864      H1871   1.087       .  S
C1864      C1865   1.362       .  D
C1865      C2193   1.489       .  S
C1865      C1866   1.539       .  S
C1866      C1870   1.556       .  S
C1866      C1868   1.551       .  S
C1866      H1872   1.108       .  S
C1867      H1873   1.067       .  S
C1867      C1868   1.364       .  D
C1868      C2183   1.505       .  S
C1869      H1874   1.086       .  S
C1869      C1870   1.374       .  D
C1870      C2026   1.492       .  S
C1875      C1876   1.537       .  S
C1875      C1881   1.528       .  S
C1875      C1879   1.544       .  S
C1875      C2170   1.539       .  S
C1876      H1883   1.087       .  S
C1876      C1877   1.361       .  D
C1877      C2150   1.480       .  S
C1877      C1878   1.538       .  S
C1878      C1882   1.550       .  S
C1878      C1880   1.547       .  S
C1878      H1884   1.110       .  S
C1879      H1885   1.077       .  S
C1879      C1880   1.364       .  D
C1880      C2160   1.499       .  S
C1881      H1886   1.087       .  S
C1881      C1882   1.371       .  D
C1882      C2012   1.476       .  S
C1887      C1888   1.512       .  S
C1887      C1893   1.528       .  S
C1887      C1891   1.542       .  S
C1887      C2133   1.541       .  S
C1888      H1895   1.086       .  S
C1888      C1889   1.364       .  D
C1889      C2008   1.494       .  S
C1889      C1890   1.562       .  S
C1890      C1894   1.545       .  S
C1890      C1892   1.564       .  S
C1890      H1896   1.109       .  S
C1891      H1897   1.085       .  S
C1891      C1892   1.380       .  D
C1892      C2140   1.511       .  S
C1893      H1898   1.087       .  S
C1893      C1894   1.363       .  D
C1894      C2190   1.483       .  S
C1899      C1900   1.522       .  S
C1899      C1905   1.524       .  S
C1899      C1903   1.555       .  S
C1899      C2163   1.542       .  S
C1900      H1907   1.085       .  S
C1900      C1901   1.358       .  D
C1901      C2120   1.500       .  S
C1901      C1902   1.559       .  S
C1902      C1906   1.565       .  S
C1902      C1904   1.546       .  S
C1902      H1908   1.110       .  S
C1903      H1909   1.085       .  S
C1903      C1904   1.369       .  D
C1904      C2143   1.508       .  S
C1905      H1910   1.082       .  S
C1905      C1906   1.369       .  D
C1911      C1912   1.532       .  S
C1911      C1917   1.522       .  S
C1911      C1915   1.549       .  S
C1911      C2180   1.540       .  S
C1912      H1919   1.087       .  S
C1912      C1913   1.363       .  D
C1913      C2123   1.477       .  S
C1913      C1914   1.542       .  S
C1914      C1918   1.550       .  S
C1914      C1916   1.550       .  S
C1914      H1920   1.109       .  S
C1915      H1921   1.084       .  S
C1915      C1916   1.369       .  D
C1916      C2110   1.507       .  S
C1917      H1922   1.087       .  S
C1917      C1918   1.366       .  D
C1923      C1924   1.517       .  S
C1923      C1929   1.529       .  S
C1923      C1927   1.536       .  S
C1923      C2100   1.535       .  S
C1924      H1931   1.084       .  S
C1924      C1925   1.366       .  D
C1925      C2022   1.496       .  S
C1925      C1926   1.563       .  S
C1926      C1930   1.544       .  S
C1926      C1928   1.566       .  S
C1926      H1932   1.110       .  S
C1927      H1933   1.084       .  S
C1927      C1928   1.373       .  D
C1928      C2113   1.507       .  S
C1929      H1934   1.087       .  S
C1929      C1930   1.361       .  D
C1930      C2153   1.485       .  S
C1935      C1936   1.531       .  S
C1935      C1941   1.536       .  S
C1935      C1939   1.531       .  S
C1935      C2103   1.535       .  S
C1936      H1943   1.087       .  S
C1936      C1937   1.360       .  D
C1937      C2093   1.472       .  S
C1937      C1938   1.529       .  S
C1938      C1942   1.543       .  S
C1938      C1940   1.558       .  S
C1938      H1944   1.098       .  S
C1939      H1945   1.077       .  S
C1939      C1940   1.374       .  D
C1940      C2080   1.509       .  S
C1941      H1946   1.083       .  S
C1941      C1942   1.366       .  D
C1947      C1948   1.528       .  S
C1947      C1953   1.550       .  S
C1947      C1951   1.535       .  S
C1947      C2130   1.543       .  S
C1948      H1955   1.087       .  S
C1948      C1949   1.361       .  D
C1949      C2063   1.466       .  S
C1949      C1950   1.526       .  S
C1950      C1954   1.536       .  S
C1950      C1952   1.547       .  S
C1950      H1956   1.106       .  S
C1951      H1957   1.084       .  S
C1951      C1952   1.370       .  D
C1952      C2070   1.498       .  S
C1953      H1958   1.085       .  S
C1953      C1954   1.375       .  D
C1959      C1960   1.521       .  S
C1959      C1965   1.539       .  S
C1959      C1963   1.540       .  S
C1959      C2073   1.546       .  S
C1960      H1967   1.087       .  S
C1960      C1961   1.368       .  D
C1961      C2040   1.496       .  S
C1961      C1962   1.549       .  S
C1962      C1966   1.546       .  S
C1962      C1964   1.553       .  S
C1962      H1968   1.107       .  S
C1963      H1969   1.085       .  S
C1963      C1964   1.374       .  D
C1964      C2050   1.495       .  S
C1965      H1970   1.084       .  S
C1965      C1966   1.364       .  D
C1966      C2023   1.481       .  S
C1971      C1972   1.509       .  S
C1971      C1977   1.532       .  S
C1971      C1975   1.543       .  S
C1971      C2173   1.537       .  S
C1972      H1979   1.088       .  S
C1972      C1973   1.364       .  D
C1973      C1974   1.552       .  S
C1974      C1978   1.544       .  S
C1974      C1976   1.548       .  S
C1974      H1980   1.110       .  S
C1975      H1981   1.081       .  S
C1975      C1976   1.376       .  D
C1976      C2053   1.495       .  S
C1977      H1982   1.087       .  S
C1977      C1978   1.364       .  D
C1978      C2090   1.475       .  S
C1983      C1984   1.534       .  S
C1983      C1989   1.526       .  S
C1983      C1987   1.535       .  S
C1983      C2083   1.537       .  S
C1984      H1991   1.087       .  S
C1984      C1985   1.370       .  D
C1985      C2043   1.497       .  S
C1985      C1986   1.544       .  S
C1986      C1990   1.535       .  S
C1986      C1988   1.548       .  S
C1986      H1992   1.105       .  S
C1987      H1993   1.076       .  S
C1987      C1988   1.368       .  D
C1988      C2030   1.484       .  S
C1989      H1994   1.089       .  S
C1989      C1990   1.357       .  D
C1990      C2027   1.457       .  S
C1995      C1996   1.518       .  S
C1995      C2001   1.530       .  S
C1995      C1999   1.541       .  S
C1995      C2203   1.548       .  S
C1996      H2003   1.087       .  S
C1996      C1997   1.370       .  D
C1997      C1998   1.547       .  S
C1998      C2002   1.542       .  S
C1998      C2000   1.548       .  S
C1998      H2004   1.108       .  S
C1999      H2005   1.080       .  S
C1999      C2000   1.378       .  D
C2000      C2033   1.495       .  S
C2001      H2006   1.087       .  S
C2001      C2002   1.366       .  D
C2002      C2060   1.479       .  S
O2007      C2022   1.264       .  A
O2007     Al2015   1.945       .  S
C2008      O2018   1.264       .  A
C2008      O2009   1.264       .  A
O2009     Al2011   1.891       .  S
O2010      C2012   1.261       .  A
O2010     Al2011   1.891       .  S
Al2011     O2019   1.901       .  S
Al2011     O2021   1.894       .  S
Al2011     O2020   1.764       .  S
C2012      O2025   1.265       .  A
O2013      C2023   1.264       .  A
O2013     Al2015   1.899       .  S
O2014      C2027   1.261       .  A
O2014     Al2024   1.883       .  S
Al2015     O2028   1.914       .  S
Al2015     O2025   1.935       .  S
Al2015     O2020   1.804       .  S
O2016      C2023   1.266       .  A
O2016     Al2024   1.941       .  S
O2017      C2026   1.268       .  A
O2017     Al2024   1.957       .  S
O2018     Al2024   1.942       .  S
O2019      C2026   1.262       .  A
O2020     Al2024   1.800       .  S
O2021      C2022   1.263       .  A
C2027      O2028   1.261       .  A
C2029      C2030   1.403       .  A
C2029      H2036   1.084       .  S
C2030      C2031   1.409       .  A
C2031     Br2038   1.921       .  S
C2032      C2033   1.403       .  A
C2032      H2037   1.083       .  S
C2033      C2034   1.416       .  A
C2034     Br2035   1.908       .  S
C2039      C2040   1.409       .  A
C2039      H2046   1.084       .  S
C2040      C2041   1.411       .  A
C2041     Br2048   1.918       .  S
C2042      C2043   1.412       .  A
C2042      H2047   1.083       .  S
C2043      C2044   1.412       .  A
C2044     Br2045   1.917       .  S
C2049      C2050   1.407       .  A
C2049      C2790   1.413   1_545  A
C2049      H2056   1.083       .  S
C2050      C2051   1.411       .  A
C2051      C2788   1.393   1_545  A
C2051     Br2058   1.913       .  S
C2052      C2787   1.393       .  A
C2052      C2053   1.400       .  A
C2052      H2057   1.083       .  S
C2053      C2054   1.412       .  A
C2054      C2785   1.413       .  A
C2054     Br2055   1.910       .  S
C2059      C2060   1.404       .  A
C2059      H2066   1.084       .  S
C2060      C2061   1.412       .  A
C2061     Br2068   1.904       .  S
C2062      C2063   1.395       .  A
C2062      H2067   1.084       .  S
C2063      C2064   1.406       .  A
C2064     Br2065   1.921       .  S
C2069      C2070   1.400       .  A
C2069      H2076   1.080       .  S
C2070      C2071   1.406       .  A
C2071     Br2078   1.908       .  S
C2072      C2073   1.418       .  A
C2072      H2077   1.078       .  S
C2073      C2074   1.422       .  A
C2074     Br2075   1.910       .  S
C2079      C2080   1.413       .  A
C2079      C2820   1.398       .  A
C2079      H2086   1.070       .  S
C2080      C2081   1.410       .  A
C2081      C2818   1.394       .  A
C2081     Br2088   1.910       .  S
C2082      C2817   1.394   1_545  A
C2082      C2083   1.414       .  A
C2082      H2087   1.078       .  S
C2083      C2084   1.420       .  A
C2084      C2815   1.398   1_545  A
C2084     Br2085   1.921       .  S
C2089      C2090   1.404       .  A
C2089      H2096   1.079       .  S
C2090      C2091   1.405       .  A
C2091     Br2098   1.914       .  S
C2092      C2093   1.402       .  A
C2092      H2097   1.083       .  S
C2093      C2094   1.404       .  A
C2094     Br2095   1.920       .  S
C2099      C2100   1.408       .  A
C2099      C2104   1.399       .  A
C2099      H2106   1.080       .  S
C2100      C2101   1.425       .  A
C2101      C2102   1.398       .  A
C2101     Br2108   1.929       .  S
C2102      C2103   1.406       .  A
C2102      H2107   1.076       .  S
C2103      C2104   1.418       .  A
C2104     Br2105   1.925       .  S
C2109      C2110   1.404       .  A
C2109      H2116   1.084       .  S
C2110      C2111   1.413       .  A
C2111     Br2118   1.908       .  S
C2112      C2113   1.408       .  A
C2112      H2117   1.083       .  S
C2113      C2114   1.421       .  A
C2114     Br2115   1.927       .  S
C2119      C2120   1.408       .  A
C2119      H2126   1.083       .  S
C2120      C2121   1.428       .  A
C2121     Br2128   1.927       .  S
C2122      C2123   1.392       .  A
C2122      H2127   1.084       .  S
C2123      C2124   1.407       .  A
C2124     Br2125   1.916       .  S
C2129      C2130   1.406       .  A
C2129      C2134   1.401       .  A
C2129      H2136   1.081       .  S
C2130      C2131   1.426       .  A
C2131      C2132   1.403       .  A
C2131     Br2138   1.922       .  S
C2132      C2133   1.404       .  A
C2132      H2137   1.081       .  S
C2133      C2134   1.425       .  A
C2134     Br2135   1.929       .  S
C2139      C2140   1.405       .  A
C2139      C2880   1.397   1_545  A
C2139      H2146   1.083       .  S
C2140      C2141   1.417       .  A
C2141      C2878   1.419   1_545  A
C2141     Br2148   1.917       .  S
C2142      C2877   1.419       .  A
C2142      C2143   1.411       .  A
C2142      H2147   1.083       .  S
C2143      C2144   1.414       .  A
C2144      C2875   1.397       .  A
C2144     Br2145   1.914       .  S
C2149      C2150   1.399       .  A
C2149      H2156   1.084       .  S
C2150      C2151   1.409       .  A
C2151     Br2158   1.913       .  S
C2152      C2153   1.403       .  A
C2152      H2157   1.084       .  S
C2153      C2154   1.412       .  A
C2154     Br2155   1.908       .  S
C2159      C2160   1.403       .  A
C2159      H2166   1.083       .  S
C2160      C2161   1.417       .  A
C2161     Br2168   1.929       .  S
C2162      C2163   1.410       .  A
C2162      H2167   1.080       .  S
C2163      C2164   1.426       .  A
C2164     Br2165   1.918       .  S
C2169      C2170   1.412       .  A
C2169      C2174   1.402       .  A
C2169      H2176   1.077       .  S
C2170      C2171   1.413       .  A
C2171      C2172   1.394       .  A
C2171     Br2178   1.920       .  S
C2172      C2173   1.411       .  A
C2172      H2177   1.083       .  S
C2173      C2174   1.418       .  A
C2174     Br2175   1.917       .  S
C2179      C2180   1.405       .  A
C2179      C2920   1.394       .  A
C2179      H2186   1.080       .  S
C2180      C2181   1.420       .  A
C2181      C2918   1.402       .  A
C2181     Br2188   1.917       .  S
C2182      C2917   1.402   1_545  A
C2182      C2183   1.404       .  A
C2182      H2187   1.083       .  S
C2183      C2184   1.426       .  A
C2184      C2915   1.394   1_545  A
C2184     Br2185   1.931       .  S
C2189      C2190   1.403       .  A
C2189      H2196   1.084       .  S
C2190      C2191   1.406       .  A
C2191     Br2198   1.915       .  S
C2192      C2193   1.406       .  A
C2192      H2197   1.084       .  S
C2193      C2194   1.411       .  A
C2194     Br2195   1.914       .  S
C2199      C2200   1.416       .  A
C2199      C2204   1.405       .  A
C2199      H2206   1.065       .  S
C2200      C2201   1.416       .  A
C2201      C2202   1.402       .  A
C2201     Br2208   1.924       .  S
C2202      C2203   1.414       .  A
C2202      H2207   1.082       .  S
C2203      C2204   1.419       .  A
C2204     Br2205   1.921       .  S
O2209      C2224   1.263       .  A
O2209     Al2217   1.943       .  S
C2210      O2220   1.263       .  A
C2210      O2211   1.259       .  A
C2210      C2341   1.484       .  S
O2211     Al2213   1.870       .  S
O2212      C2214   1.261       .  A
O2212     Al2213   1.887       .  S
Al2213     O2221   1.878       .  S
Al2213     O2223   1.862       .  S
Al2213     O2222   1.772       .  S
C2214      O2227   1.267       .  A
C2214      C2322   1.479       .  S
O2215      C2225   1.266       .  A
O2215     Al2217   1.904       .  S
O2216      C2229   1.262       .  A
O2216     Al2226   1.880       .  S
Al2217     O2230   1.924       .  S
Al2217     O2227   1.942       .  S
Al2217     O2222   1.795       .  S
O2218      C2225   1.263       .  A
O2218     Al2226   1.934       .  S
O2219      C2228   1.266       .  A
O2219     Al2226   1.952       .  S
O2220     Al2226   1.932       .  S
O2221      C2228   1.257       .  A
O2222     Al2226   1.808       .  S
O2223      C2224   1.253       .  A
C2224      C2365   1.486       .  S
C2225      C2274   1.486       .  S
C2228      C2310   1.476       .  S
C2229      O2230   1.263       .  A
C2229      C2286   1.471       .  S
C2231      C2232   1.540       .  S
C2231      C2237   1.533       .  S
C2231      C2235   1.546       .  S
C2231      C2568   1.551       .  S
C2232      H2239   1.087       .  S
C2232      C2233   1.362       .  D
C2233      C2561   1.489       .  S
C2233      C2234   1.539       .  S
C2234      C2238   1.556       .  S
C2234      C2236   1.551       .  S
C2234      H2240   1.108       .  S
C2235      H2241   1.066       .  S
C2235      C2236   1.364       .  D
C2236      C2551   1.505       .  S
C2237      H2242   1.086       .  S
C2237      C2238   1.374       .  D
C2238      C2394   1.492       .  S
C2243      C2244   1.537       .  S
C2243      C2249   1.528       .  S
C2243      C2247   1.544       .  S
C2243      C2538   1.539       .  S
C2244      H2251   1.087       .  S
C2244      C2245   1.361       .  D
C2245      C2518   1.480       .  S
C2245      C2246   1.538       .  S
C2246      C2250   1.550       .  S
C2246      C2248   1.547       .  S
C2246      H2252   1.110       .  S
C2247      H2253   1.077       .  S
C2247      C2248   1.364       .  D
C2248      C2528   1.499       .  S
C2249      H2254   1.087       .  S
C2249      C2250   1.371       .  D
C2250      C2380   1.476       .  S
C2255      C2256   1.512       .  S
C2255      C2261   1.528       .  S
C2255      C2259   1.542       .  S
C2255      C2501   1.541       .  S
C2256      H2263   1.086       .  S
C2256      C2257   1.364       .  D
C2257      C2376   1.495       .  S
C2257      C2258   1.563       .  S
C2258      C2262   1.545       .  S
C2258      C2260   1.564       .  S
C2258      H2264   1.109       .  S
C2259      H2265   1.085       .  S
C2259      C2260   1.380       .  D
C2260      C2508   1.511       .  S
C2261      H2266   1.087       .  S
C2261      C2262   1.363       .  D
C2262      C2558   1.483       .  S
C2267      C2268   1.522       .  S
C2267      C2273   1.523       .  S
C2267      C2271   1.555       .  S
C2267      C2531   1.542       .  S
C2268      H2275   1.085       .  S
C2268      C2269   1.358       .  D
C2269      C2488   1.500       .  S
C2269      C2270   1.558       .  S
C2270      C2274   1.565       .  S
C2270      C2272   1.546       .  S
C2270      H2276   1.110       .  S
C2271      H2277   1.085       .  S
C2271      C2272   1.369       .  D
C2272      C2511   1.508       .  S
C2273      H2278   1.082       .  S
C2273      C2274   1.369       .  D
C2279      C2280   1.532       .  S
C2279      C2285   1.522       .  S
C2279      C2283   1.549       .  S
C2279      C2548   1.540       .  S
C2280      H2287   1.087       .  S
C2280      C2281   1.363       .  D
C2281      C2491   1.477       .  S
C2281      C2282   1.542       .  S
C2282      C2286   1.550       .  S
C2282      C2284   1.550       .  S
C2282      H2288   1.109       .  S
C2283      H2289   1.082       .  S
C2283      C2284   1.369       .  D
C2284      C2478   1.507       .  S
C2285      H2290   1.087       .  S
C2285      C2286   1.366       .  D
C2291      C2292   1.517       .  S
C2291      C2297   1.529       .  S
C2291      C2295   1.536       .  S
C2291      C2468   1.535       .  S
C2292      H2299   1.084       .  S
C2292      C2293   1.366       .  D
C2293      C2390   1.496       .  S
C2293      C2294   1.563       .  S
C2294      C2298   1.544       .  S
C2294      C2296   1.566       .  S
C2294      H2300   1.110       .  S
C2295      H2301   1.084       .  S
C2295      C2296   1.373       .  D
C2296      C2481   1.506       .  S
C2297      H2302   1.087       .  S
C2297      C2298   1.361       .  D
C2298      C2521   1.485       .  S
C2303      C2304   1.531       .  S
C2303      C2309   1.536       .  S
C2303      C2307   1.531       .  S
C2303      C2471   1.535       .  S
C2304      H2311   1.087       .  S
C2304      C2305   1.360       .  D
C2305      C2461   1.472       .  S
C2305      C2306   1.529       .  S
C2306      C2310   1.543       .  S
C2306      C2308   1.557       .  S
C2306      H2312   1.098       .  S
C2307      H2313   1.077       .  S
C2307      C2308   1.374       .  D
C2308      C2448   1.508       .  S
C2309      H2314   1.083       .  S
C2309      C2310   1.366       .  D
C2315      C2316   1.528       .  S
C2315      C2321   1.550       .  S
C2315      C2319   1.535       .  S
C2315      C2498   1.543       .  S
C2316      H2323   1.087       .  S
C2316      C2317   1.361       .  D
C2317      C2431   1.466       .  S
C2317      C2318   1.526       .  S
C2318      C2322   1.536       .  S
C2318      C2320   1.547       .  S
C2318      H2324   1.107       .  S
C2319      H2325   1.084       .  S
C2319      C2320   1.370       .  D
C2320      C2438   1.498       .  S
C2321      H2326   1.085       .  S
C2321      C2322   1.375       .  D
C2327      C2328   1.521       .  S
C2327      C2333   1.539       .  S
C2327      C2331   1.540       .  S
C2327      C2441   1.546       .  S
C2328      H2335   1.087       .  S
C2328      C2329   1.368       .  D
C2329      C2408   1.496       .  S
C2329      C2330   1.549       .  S
C2330      C2334   1.546       .  S
C2330      C2332   1.553       .  S
C2330      H2336   1.107       .  S
C2331      H2337   1.085       .  S
C2331      C2332   1.374       .  D
C2332      C2418   1.495       .  S
C2333      H2338   1.084       .  S
C2333      C2334   1.364       .  D
C2334      C2391   1.481       .  S
C2339      C2340   1.509       .  S
C2339      C2345   1.532       .  S
C2339      C2343   1.543       .  S
C2339      C2541   1.537       .  S
C2340      H2347   1.088       .  S
C2340      C2341   1.364       .  D
C2341      C2342   1.552       .  S
C2342      C2346   1.544       .  S
C2342      C2344   1.548       .  S
C2342      H2348   1.110       .  S
C2343      H2349   1.081       .  S
C2343      C2344   1.376       .  D
C2344      C2421   1.495       .  S
C2345      H2350   1.087       .  S
C2345      C2346   1.364       .  D
C2346      C2458   1.475       .  S
C2351      C2352   1.534       .  S
C2351      C2357   1.526       .  S
C2351      C2355   1.534       .  S
C2351      C2451   1.536       .  S
C2352      H2359   1.087       .  S
C2352      C2353   1.369       .  D
C2353      C2411   1.497       .  S
C2353      C2354   1.544       .  S
C2354      C2358   1.535       .  S
C2354      C2356   1.548       .  S
C2354      H2360   1.105       .  S
C2355      H2361   1.077       .  S
C2355      C2356   1.368       .  D
C2356      C2398   1.483       .  S
C2357      H2362   1.089       .  S
C2357      C2358   1.357       .  D
C2358      C2395   1.457       .  S
C2363      C2364   1.518       .  S
C2363      C2369   1.530       .  S
C2363      C2367   1.541       .  S
C2363      C2571   1.548       .  S
C2364      H2371   1.087       .  S
C2364      C2365   1.370       .  D
C2365      C2366   1.547       .  S
C2366      C2370   1.542       .  S
C2366      C2368   1.548       .  S
C2366      H2372   1.108       .  S
C2367      H2373   1.080       .  S
C2367      C2368   1.378       .  D
C2368      C2401   1.495       .  S
C2369      H2374   1.087       .  S
C2369      C2370   1.366       .  D
C2370      C2428   1.479       .  S
O2375      C2390   1.264       .  A
O2375     Al2383   1.945       .  S
C2376      O2386   1.264       .  A
C2376      O2377   1.264       .  A
O2377     Al2379   1.891       .  S
O2378      C2380   1.261       .  A
O2378     Al2379   1.891       .  S
Al2379     O2387   1.901       .  S
Al2379     O2389   1.894       .  S
Al2379     O2388   1.764       .  S
C2380      O2393   1.265       .  A
O2381      C2391   1.264       .  A
O2381     Al2383   1.899       .  S
O2382      C2395   1.261       .  A
O2382     Al2392   1.883       .  S
Al2383     O2396   1.914       .  S
Al2383     O2393   1.936       .  S
Al2383     O2388   1.804       .  S
O2384      C2391   1.266       .  A
O2384     Al2392   1.941       .  S
O2385      C2394   1.268       .  A
O2385     Al2392   1.957       .  S
O2386     Al2392   1.942       .  S
O2387      C2394   1.262       .  A
O2388     Al2392   1.800       .  S
O2389      C2390   1.263       .  A
C2395      O2396   1.261       .  A
C2397      C2398   1.402       .  A
C2397      H2404   1.084       .  S
C2398      C2399   1.409       .  A
C2399     Br2406   1.921       .  S
C2400      C2401   1.403       .  A
C2400      H2405   1.083       .  S
C2401      C2402   1.416       .  A
C2402     Br2403   1.908       .  S
C2407      C2408   1.409       .  A
C2407      C2780   1.395       .  A
C2407      H2414   1.084       .  S
C2408      C2409   1.411       .  A
C2409      C2778   1.399       .  A
C2409     Br2416   1.918       .  S
C2410      C2777   1.399   1_554  A
C2410      C2411   1.412       .  A
C2410      H2415   1.083       .  S
C2411      C2412   1.412       .  A
C2412      C2775   1.395   1_554  A
C2412     Br2413   1.917       .  S
C2417      C2418   1.407       .  A
C2417      H2424   1.083       .  S
C2418      C2419   1.411       .  A
C2419     Br2426   1.913       .  S
C2420      C2421   1.400       .  A
C2420      H2425   1.083       .  S
C2421      C2422   1.412       .  A
C2422     Br2423   1.910       .  S
C2427      C2428   1.404       .  A
C2427      C2800   1.393   1_554  A
C2427      H2434   1.084       .  S
C2428      C2429   1.412       .  A
C2429      C2798   1.397   1_554  A
C2429     Br2436   1.904       .  S
C2430      C2797   1.397       .  A
C2430      C2431   1.395       .  A
C2430      H2435   1.084       .  S
C2431      C2432   1.406       .  A
C2432      C2795   1.393       .  A
C2432     Br2433   1.921       .  S
C2437      C2438   1.400       .  A
C2437      H2444   1.080       .  S
C2438      C2439   1.406       .  A
C2439     Br2446   1.908       .  S
C2440      C2441   1.417       .  A
C2440      H2445   1.078       .  S
C2441      C2442   1.422       .  A
C2442     Br2443   1.910       .  S
C2447      C2448   1.413       .  A
C2447      H2454   1.071       .  S
C2448      C2449   1.410       .  A
C2449     Br2456   1.910       .  S
C2450      C2451   1.413       .  A
C2450      H2455   1.078       .  S
C2451      C2452   1.420       .  A
C2452     Br2453   1.921       .  S
C2457      C2458   1.404       .  A
C2457      C2830   1.396       .  A
C2457      H2464   1.078       .  S
C2458      C2459   1.405       .  A
C2459      C2828   1.400       .  A
C2459     Br2466   1.914       .  S
C2460      C2827   1.401   1_554  A
C2460      C2461   1.402       .  A
C2460      H2465   1.083       .  S
C2461      C2462   1.404       .  A
C2462      C2825   1.396   1_554  A
C2462     Br2463   1.920       .  S
C2467      C2468   1.408       .  A
C2467      C2472   1.399       .  A
C2467      H2474   1.080       .  S
C2468      C2469   1.425       .  A
C2469      C2470   1.398       .  A
C2469     Br2476   1.929       .  S
C2470      C2471   1.406       .  A
C2470      H2475   1.076       .  S
C2471      C2472   1.418       .  A
C2472     Br2473   1.925       .  S
C2477      C2478   1.404       .  A
C2477      H2484   1.084       .  S
C2478      C2479   1.414       .  A
C2479     Br2486   1.908       .  S
C2480      C2481   1.408       .  A
C2480      H2485   1.083       .  S
C2481      C2482   1.421       .  A
C2482     Br2483   1.927       .  S
C2487      C2488   1.408       .  A
C2487      C2860   1.408       .  A
C2487      H2494   1.083       .  S
C2488      C2489   1.428       .  A
C2489      C2858   1.393       .  A
C2489     Br2496   1.927       .  S
C2490      C2857   1.392   1_554  A
C2490      C2491   1.392       .  A
C2490      H2495   1.084       .  S
C2491      C2492   1.407       .  A
C2492      C2855   1.408   1_554  A
C2492     Br2493   1.916       .  S
C2497      C2498   1.406       .  A
C2497      C2502   1.401       .  A
C2497      H2504   1.081       .  S
C2498      C2499   1.426       .  A
C2499      C2500   1.403       .  A
C2499     Br2506   1.922       .  S
C2500      C2501   1.404       .  A
C2500      H2505   1.081       .  S
C2501      C2502   1.425       .  A
C2502     Br2503   1.929       .  S
C2507      C2508   1.405       .  A
C2507      H2514   1.083       .  S
C2508      C2509   1.417       .  A
C2509     Br2516   1.917       .  S
C2510      C2511   1.411       .  A
C2510      H2515   1.083       .  S
C2511      C2512   1.414       .  A
C2512     Br2513   1.914       .  S
C2517      C2518   1.399       .  A
C2517      C2890   1.402       .  A
C2517      H2524   1.084       .  S
C2518      C2519   1.409       .  A
C2519      C2888   1.398       .  A
C2519     Br2526   1.913       .  S
C2520      C2887   1.399   1_554  A
C2520      C2521   1.403       .  A
C2520      H2525   1.084       .  S
C2521      C2522   1.412       .  A
C2522      C2885   1.402   1_554  A
C2522     Br2523   1.908       .  S
C2527      C2528   1.403       .  A
C2527      H2534   1.083       .  S
C2528      C2529   1.417       .  A
C2529     Br2536   1.929       .  S
C2530      C2531   1.410       .  A
C2530      H2535   1.079       .  S
C2531      C2532   1.426       .  A
C2532     Br2533   1.918       .  S
C2537      C2538   1.412       .  A
C2537      C2542   1.402       .  A
C2537      H2544   1.077       .  S
C2538      C2539   1.413       .  A
C2539      C2540   1.394       .  A
C2539     Br2546   1.920       .  S
C2540      C2541   1.411       .  A
C2540      H2545   1.083       .  S
C2541      C2542   1.418       .  A
C2542     Br2543   1.917       .  S
C2547      C2548   1.405       .  A
C2547      H2554   1.077       .  S
C2548      C2549   1.420       .  A
C2549     Br2556   1.916       .  S
C2550      C2551   1.404       .  A
C2550      H2555   1.083       .  S
C2551      C2552   1.426       .  A
C2552     Br2553   1.931       .  S
C2557      C2558   1.403       .  A
C2557      C2930   1.400       .  A
C2557      H2564   1.084       .  S
C2558      C2559   1.406       .  A
C2559      C2928   1.407       .  A
C2559     Br2566   1.915       .  S
C2560      C2927   1.407   1_554  A
C2560      C2561   1.406       .  A
C2560      H2565   1.084       .  S
C2561      C2562   1.411       .  A
C2562      C2925   1.400   1_554  A
C2562     Br2563   1.914       .  S
C2567      C2568   1.416       .  A
C2567      C2572   1.405       .  A
C2567      H2574   1.064       .  S
C2568      C2569   1.416       .  A
C2569      C2570   1.402       .  A
C2569     Br2576   1.924       .  S
C2570      C2571   1.414       .  A
C2570      H2575   1.082       .  S
C2571      C2572   1.419       .  A
C2572     Br2573   1.921       .  S
O2577      C2592   1.263       .  A
O2577     Al2585   1.943       .  S
C2578      O2588   1.263       .  A
C2578      O2579   1.259       .  A
C2578      C2709   1.485       .  S
O2579     Al2581   1.871       .  S
O2580      C2582   1.261       .  A
O2580     Al2581   1.887       .  S
Al2581     O2589   1.878       .  S
Al2581     O2591   1.861       .  S
Al2581     O2590   1.772       .  S
C2582      O2595   1.267       .  A
C2582      C2690   1.479       .  S
O2583      C2593   1.266       .  A
O2583     Al2585   1.904       .  S
O2584      C2597   1.262       .  A
O2584     Al2594   1.881       .  S
Al2585     O2598   1.924       .  S
Al2585     O2595   1.942       .  S
Al2585     O2590   1.796       .  S
O2586      C2593   1.263       .  A
O2586     Al2594   1.934       .  S
O2587      C2596   1.266       .  A
O2587     Al2594   1.953       .  S
O2588     Al2594   1.933       .  S
O2589      C2596   1.257       .  A
O2590     Al2594   1.808       .  S
O2591      C2592   1.253       .  A
C2592      C2733   1.486       .  S
C2593      C2642   1.487       .  S
C2596      C2678   1.476       .  S
C2597      O2598   1.263       .  A
C2597      C2654   1.471       .  S
C2599      C2600   1.540       .  S
C2599      C2605   1.532       .  S
C2599      C2603   1.547       .  S
C2599      C2936   1.551       .  S
C2600      H2607   1.087       .  S
C2600      C2601   1.362       .  D
C2601      C2929   1.488       .  S
C2601      C2602   1.538       .  S
C2602      C2606   1.556       .  S
C2602      C2604   1.551       .  S
C2602      H2608   1.108       .  S
C2603      H2609   1.068       .  S
C2603      C2604   1.365       .  D
C2604      C2919   1.506       .  S
C2605      H2610   1.086       .  S
C2605      C2606   1.374       .  D
C2606      C2762   1.492       .  S
C2611      C2612   1.537       .  S
C2611      C2617   1.528       .  S
C2611      C2615   1.544       .  S
C2611      C2906   1.539       .  S
C2612      H2619   1.087       .  S
C2612      C2613   1.361       .  D
C2613      C2886   1.480       .  S
C2613      C2614   1.538       .  S
C2614      C2618   1.550       .  S
C2614      C2616   1.547       .  S
C2614      H2620   1.110       .  S
C2615      H2621   1.077       .  S
C2615      C2616   1.364       .  D
C2616      C2896   1.499       .  S
C2617      H2622   1.087       .  S
C2617      C2618   1.371       .  D
C2618      C2748   1.476       .  S
C2623      C2624   1.512       .  S
C2623      C2629   1.528       .  S
C2623      C2627   1.542       .  S
C2623      C2869   1.542       .  S
C2624      H2631   1.086       .  S
C2624      C2625   1.364       .  D
C2625      C2744   1.494       .  S
C2625      C2626   1.562       .  S
C2626      C2630   1.545       .  S
C2626      C2628   1.564       .  S
C2626      H2632   1.109       .  S
C2627      H2633   1.085       .  S
C2627      C2628   1.381       .  D
C2628      C2876   1.511       .  S
C2629      H2634   1.087       .  S
C2629      C2630   1.363       .  D
C2630      C2926   1.483       .  S
C2635      C2636   1.522       .  S
C2635      C2641   1.524       .  S
C2635      C2639   1.555       .  S
C2635      C2899   1.542       .  S
C2636      H2643   1.085       .  S
C2636      C2637   1.358       .  D
C2637      C2856   1.500       .  S
C2637      C2638   1.558       .  S
C2638      C2642   1.565       .  S
C2638      C2640   1.546       .  S
C2638      H2644   1.110       .  S
C2639      H2645   1.085       .  S
C2639      C2640   1.369       .  D
C2640      C2879   1.508       .  S
C2641      H2646   1.082       .  S
C2641      C2642   1.368       .  D
C2647      C2648   1.532       .  S
C2647      C2653   1.522       .  S
C2647      C2651   1.548       .  S
C2647      C2916   1.539       .  S
C2648      H2655   1.087       .  S
C2648      C2649   1.363       .  D
C2649      C2859   1.477       .  S
C2649      C2650   1.543       .  S
C2650      C2654   1.551       .  S
C2650      C2652   1.550       .  S
C2650      H2656   1.109       .  S
C2651      H2657   1.084       .  S
C2651      C2652   1.369       .  D
C2652      C2846   1.506       .  S
C2653      H2658   1.087       .  S
C2653      C2654   1.365       .  D
C2659      C2660   1.517       .  S
C2659      C2665   1.529       .  S
C2659      C2663   1.536       .  S
C2659      C2836   1.535       .  S
C2660      H2667   1.084       .  S
C2660      C2661   1.366       .  D
C2661      C2758   1.496       .  S
C2661      C2662   1.562       .  S
C2662      C2666   1.544       .  S
C2662      C2664   1.566       .  S
C2662      H2668   1.110       .  S
C2663      H2669   1.084       .  S
C2663      C2664   1.373       .  D
C2664      C2849   1.506       .  S
C2665      H2670   1.087       .  S
C2665      C2666   1.361       .  D
C2666      C2889   1.485       .  S
C2671      C2672   1.531       .  S
C2671      C2677   1.536       .  S
C2671      C2675   1.531       .  S
C2671      C2839   1.535       .  S
C2672      H2679   1.087       .  S
C2672      C2673   1.359       .  D
C2673      C2829   1.472       .  S
C2673      C2674   1.529       .  S
C2674      C2678   1.542       .  S
C2674      C2676   1.558       .  S
C2674      H2680   1.098       .  S
C2675      H2681   1.077       .  S
C2675      C2676   1.374       .  D
C2676      C2816   1.509       .  S
C2677      H2682   1.083       .  S
C2677      C2678   1.366       .  D
C2683      C2684   1.528       .  S
C2683      C2689   1.550       .  S
C2683      C2687   1.535       .  S
C2683      C2866   1.543       .  S
C2684      H2691   1.087       .  S
C2684      C2685   1.361       .  D
C2685      C2799   1.466       .  S
C2685      C2686   1.526       .  S
C2686      C2690   1.536       .  S
C2686      C2688   1.547       .  S
C2686      H2692   1.107       .  S
C2687      H2693   1.084       .  S
C2687      C2688   1.370       .  D
C2688      C2806   1.498       .  S
C2689      H2694   1.085       .  S
C2689      C2690   1.375       .  D
C2695      C2696   1.521       .  S
C2695      C2701   1.539       .  S
C2695      C2699   1.541       .  S
C2695      C2809   1.546       .  S
C2696      H2703   1.087       .  S
C2696      C2697   1.368       .  D
C2697      C2776   1.496       .  S
C2697      C2698   1.549       .  S
C2698      C2702   1.546       .  S
C2698      C2700   1.553       .  S
C2698      H2704   1.107       .  S
C2699      H2705   1.085       .  S
C2699      C2700   1.374       .  D
C2700      C2786   1.495       .  S
C2701      H2706   1.084       .  S
C2701      C2702   1.364       .  D
C2702      C2759   1.481       .  S
C2707      C2708   1.509       .  S
C2707      C2713   1.532       .  S
C2707      C2711   1.544       .  S
C2707      C2909   1.537       .  S
C2708      H2715   1.088       .  S
C2708      C2709   1.364       .  D
C2709      C2710   1.552       .  S
C2710      C2714   1.544       .  S
C2710      C2712   1.548       .  S
C2710      H2716   1.110       .  S
C2711      H2717   1.081       .  S
C2711      C2712   1.376       .  D
C2712      C2789   1.495       .  S
C2713      H2718   1.087       .  S
C2713      C2714   1.364       .  D
C2714      C2826   1.476       .  S
C2719      C2720   1.534       .  S
C2719      C2725   1.526       .  S
C2719      C2723   1.535       .  S
C2719      C2819   1.537       .  S
C2720      H2727   1.087       .  S
C2720      C2721   1.370       .  D
C2721      C2779   1.497       .  S
C2721      C2722   1.544       .  S
C2722      C2726   1.535       .  S
C2722      C2724   1.548       .  S
C2722      H2728   1.105       .  S
C2723      H2729   1.076       .  S
C2723      C2724   1.368       .  D
C2724      C2766   1.484       .  S
C2725      H2730   1.089       .  S
C2725      C2726   1.357       .  D
C2726      C2763   1.457       .  S
C2731      C2732   1.518       .  S
C2731      C2737   1.530       .  S
C2731      C2735   1.541       .  S
C2731      C2939   1.549       .  S
C2732      H2739   1.087       .  S
C2732      C2733   1.370       .  D
C2733      C2734   1.547       .  S
C2734      C2738   1.542       .  S
C2734      C2736   1.548       .  S
C2734      H2740   1.108       .  S
C2735      H2741   1.080       .  S
C2735      C2736   1.378       .  D
C2736      C2769   1.495       .  S
C2737      H2742   1.087       .  S
C2737      C2738   1.366       .  D
C2738      C2796   1.479       .  S
O2743      C2758   1.264       .  A
O2743     Al2751   1.945       .  S
C2744      O2754   1.264       .  A
C2744      O2745   1.264       .  A
O2745     Al2747   1.890       .  S
O2746      C2748   1.261       .  A
O2746     Al2747   1.891       .  S
Al2747     O2755   1.900       .  S
Al2747     O2757   1.893       .  S
Al2747     O2756   1.764       .  S
C2748      O2761   1.265       .  A
O2749      C2759   1.264       .  A
O2749     Al2751   1.899       .  S
O2750      C2763   1.261       .  A
O2750     Al2760   1.883       .  S
Al2751     O2764   1.914       .  S
Al2751     O2761   1.936       .  S
Al2751     O2756   1.804       .  S
O2752      C2759   1.266       .  A
O2752     Al2760   1.941       .  S
O2753      C2762   1.268       .  A
O2753     Al2760   1.956       .  S
O2754     Al2760   1.941       .  S
O2755      C2762   1.262       .  A
O2756     Al2760   1.800       .  S
O2757      C2758   1.263       .  A
C2763      O2764   1.261       .  A
C2765      C2766   1.403       .  A
C2765      H2772   1.084       .  S
C2766      C2767   1.409       .  A
C2767     Br2774   1.921       .  S
C2768      C2769   1.403       .  A
C2768      H2773   1.083       .  S
C2769      C2770   1.416       .  A
C2770     Br2771   1.908       .  S
C2775      C2776   1.408       .  A
C2775      H2782   1.084       .  S
C2776      C2777   1.411       .  A
C2777     Br2784   1.918       .  S
C2778      C2779   1.412       .  A
C2778      H2783   1.083       .  S
C2779      C2780   1.412       .  A
C2780     Br2781   1.917       .  S
C2785      C2786   1.407       .  A
C2785      H2792   1.083       .  S
C2786      C2787   1.411       .  A
C2787     Br2794   1.912       .  S
C2788      C2789   1.400       .  A
C2788      H2793   1.082       .  S
C2789      C2790   1.412       .  A
C2790     Br2791   1.910       .  S
C2795      C2796   1.404       .  A
C2795      H2802   1.084       .  S
C2796      C2797   1.412       .  A
C2797     Br2804   1.904       .  S
C2798      C2799   1.395       .  A
C2798      H2803   1.084       .  S
C2799      C2800   1.406       .  A
C2800     Br2801   1.921       .  S
C2805      C2806   1.400       .  A
C2805      H2812   1.080       .  S
C2806      C2807   1.406       .  A
C2807     Br2814   1.908       .  S
C2808      C2809   1.418       .  A
C2808      H2813   1.078       .  S
C2809      C2810   1.422       .  A
C2810     Br2811   1.910       .  S
C2815      C2816   1.413       .  A
C2815      H2822   1.072       .  S
C2816      C2817   1.409       .  A
C2817     Br2824   1.910       .  S
C2818      C2819   1.414       .  A
C2818      H2823   1.077       .  S
C2819      C2820   1.420       .  A
C2820     Br2821   1.921       .  S
C2825      C2826   1.404       .  A
C2825      H2832   1.077       .  S
C2826      C2827   1.405       .  A
C2827     Br2834   1.914       .  S
C2828      C2829   1.402       .  A
C2828      H2833   1.083       .  S
C2829      C2830   1.404       .  A
C2830     Br2831   1.920       .  S
C2835      C2836   1.408       .  A
C2835      C2840   1.399       .  A
C2835      H2842   1.080       .  S
C2836      C2837   1.425       .  A
C2837      C2838   1.398       .  A
C2837     Br2844   1.929       .  S
C2838      C2839   1.406       .  A
C2838      H2843   1.076       .  S
C2839      C2840   1.418       .  A
C2840     Br2841   1.925       .  S
C2845      C2846   1.404       .  A
C2845      H2852   1.084       .  S
C2846      C2847   1.414       .  A
C2847     Br2854   1.909       .  S
C2848      C2849   1.408       .  A
C2848      H2853   1.083       .  S
C2849      C2850   1.421       .  A
C2850     Br2851   1.927       .  S
C2855      C2856   1.408       .  A
C2855      H2862   1.083       .  S
C2856      C2857   1.428       .  A
C2857     Br2864   1.927       .  S
C2858      C2859   1.392       .  A
C2858      H2863   1.084       .  S
C2859      C2860   1.407       .  A
C2860     Br2861   1.916       .  S
C2865      C2866   1.406       .  A
C2865      C2870   1.402       .  A
C2865      H2872   1.081       .  S
C2866      C2867   1.426       .  A
C2867      C2868   1.404       .  A
C2867     Br2874   1.922       .  S
C2868      C2869   1.404       .  A
C2868      H2873   1.081       .  S
C2869      C2870   1.426       .  A
C2870     Br2871   1.929       .  S
C2875      C2876   1.405       .  A
C2875      H2882   1.083       .  S
C2876      C2877   1.417       .  A
C2877     Br2884   1.917       .  S
C2878      C2879   1.411       .  A
C2878      H2883   1.083       .  S
C2879      C2880   1.414       .  A
C2880     Br2881   1.914       .  S
C2885      C2886   1.399       .  A
C2885      H2892   1.084       .  S
C2886      C2887   1.409       .  A
C2887     Br2894   1.914       .  S
C2888      C2889   1.403       .  A
C2888      H2893   1.084       .  S
C2889      C2890   1.413       .  A
C2890     Br2891   1.908       .  S
C2895      C2896   1.403       .  A
C2895      H2902   1.083       .  S
C2896      C2897   1.417       .  A
C2897     Br2904   1.929       .  S
C2898      C2899   1.410       .  A
C2898      H2903   1.079       .  S
C2899      C2900   1.426       .  A
C2900     Br2901   1.918       .  S
C2905      C2906   1.412       .  A
C2905      C2910   1.402       .  A
C2905      H2912   1.077       .  S
C2906      C2907   1.413       .  A
C2907      C2908   1.395       .  A
C2907     Br2914   1.921       .  S
C2908      C2909   1.411       .  A
C2908      H2913   1.083       .  S
C2909      C2910   1.418       .  A
C2910     Br2911   1.917       .  S
C2915      C2916   1.405       .  A
C2915      H2922   1.081       .  S
C2916      C2917   1.420       .  A
C2917     Br2924   1.916       .  S
C2918      C2919   1.404       .  A
C2918      H2923   1.082       .  S
C2919      C2920   1.426       .  A
C2920     Br2921   1.931       .  S
C2925      C2926   1.402       .  A
C2925      H2932   1.084       .  S
C2926      C2927   1.406       .  A
C2927     Br2934   1.915       .  S
C2928      C2929   1.406       .  A
C2928      H2933   1.084       .  S
C2929      C2930   1.410       .  A
C2930     Br2931   1.915       .  S
C2935      C2936   1.416       .  A
C2935      C2940   1.405       .  A
C2935      H2942   1.066       .  S
C2936      C2937   1.416       .  A
C2937      C2938   1.402       .  A
C2937     Br2944   1.924       .  S
C2938      C2939   1.414       .  A
C2938      H2943   1.082       .  S
C2939      C2940   1.419       .  A
C2940     Br2941   1.921       .  S
