geometry optimzed in LAMMPS
_audit_creation_date              2020-11-30 
_audit_creation_method            'lammps2cif' 
_symmetry_space_group_name_H-M    'P1' 
_symmetry_Int_Tables_number       1 
_symmetry_cell_setting            triclinic 
loop_ 
_symmetry_equiv_pos_as_xyz 
  x,y,z 
_cell_length_a                    30.44840988 
_cell_length_b                    29.90687224094758 
_cell_length_c                    44.872699674426116 
_cell_angle_alpha                 89.67336178757613 
_cell_angle_beta                  90.32062396852659 
_cell_angle_gamma                 89.99634211237695 
loop_ 
_atom_site_label 
_atom_site_type_symbol 
_atom_site_fract_x 
_atom_site_fract_y 
_atom_site_fract_z 
_atom_site_charge 
In1        In  0.37566462  0.78590688  0.83497646     1.36900
C2          C  0.45962568  0.76576489  0.83990053     0.78900
O3          O  0.38643630  0.75558432  0.79015529    -0.59600
O4          O  0.35167711  0.81718199  0.79212522    -0.50500
C5          C  0.30462582  0.73872991  0.84697134     0.71500
O6          O  0.34291808  0.72282652  0.84976706    -0.45400
C7          C  0.38198972  0.85318092  0.87290806     0.76200
O8          O  0.43065798  0.74098755  0.85155648    -0.57200
O9          O  0.38185541  0.85880926  0.84502820    -0.47300
O10         O  0.44500288  0.79940866  0.82602305    -0.53700
C11         C  0.36739051  0.78661733  0.77603741     0.86400
O12         O  0.30291787  0.77938393  0.83947592    -0.55500
O13         O  0.37536939  0.81353131  0.88143909    -0.58800
In14       In  0.66856151  0.78895954  0.83277921     1.36900
C15         C  0.58235209  0.78337783  0.82955986     0.78900
O16         O  0.67063741  0.81641868  0.87954470    -0.59600
O17         O  0.66844584  0.86233917  0.84344713    -0.50500
C18         C  0.72544533  0.72611109  0.84875458     0.71500
O19         O  0.68441456  0.72047714  0.85035588    -0.45400
C20         C  0.68654771  0.79025606  0.77494967     0.76200
O21         O  0.60432190  0.75531276  0.84469041    -0.57200
O22         O  0.70457687  0.81698531  0.79302885    -0.47300
O23         O  0.60455851  0.81260730  0.81623393    -0.53700
C24         C  0.66685341  0.85654247  0.87123409     0.86400
O25         O  0.73727413  0.76472393  0.84047576    -0.55500
O26         O  0.66108699  0.76208098  0.78673436    -0.58800
In27       In  0.67109009  0.08626064  0.63657589     1.36900
C28         C  0.68062803  0.99862896  0.64073306     0.78900
O29         O  0.69852731  0.08111030  0.68287705    -0.59600
O30         O  0.63908347  0.11755363  0.67653147    -0.50500
C31         C  0.72535501  0.15273691  0.62274758     0.71500
O32         O  0.73705111  0.11216357  0.62159987    -0.45400
C33         C  0.60616735  0.08013894  0.59657859     0.76200
O34         O  0.70689684  0.02179865  0.62518975    -0.57200
O35         O  0.59949895  0.08528906  0.62404720    -0.47300
O36         O  0.65145189  0.02045845  0.65395849    -0.53700
C37         C  0.66753121  0.10258782  0.69469061     0.86400
O38         O  0.68558546  0.15880789  0.62930899    -0.55500
O39         O  0.64599299  0.08199899  0.58911176    -0.58800
In40       In  0.67384561  0.78758128  0.63222569     1.36900
C41         C  0.69519266  0.87345726  0.62837904     0.78900
O42         O  0.64388384  0.78315390  0.58614724    -0.59600
O43         O  0.60194879  0.79501605  0.62278330    -0.50500
C44         C  0.72363064  0.71693470  0.62130149     0.71500
O45         O  0.73650465  0.75646201  0.61638319    -0.45400
C46         C  0.67023641  0.77594959  0.69085566     0.76200
O47         O  0.71612051  0.84411457  0.61411508    -0.57200
O48         O  0.64076809  0.76171882  0.67340221    -0.47300
O49         O  0.66468689  0.85834517  0.64436479    -0.53700
C50         C  0.60562484  0.79177320  0.59496599     0.86400
O51         O  0.68472619  0.71365554  0.63044946    -0.55500
O52         O  0.70192216  0.79542825  0.67824812    -0.58800
In53       In  0.38748632  0.77477531  0.63465932     1.36900
C54         C  0.36590795  0.85972686  0.63023729     0.78900
O55         O  0.35784418  0.78430723  0.67955502    -0.59600
O56         O  0.41829039  0.74882531  0.67713558    -0.50500
C57         C  0.33876523  0.70459013  0.62165183     0.71500
O58         O  0.32546795  0.74424606  0.61775066    -0.45400
C59         C  0.45393752  0.78396767  0.59691660     0.76200
O60         O  0.34235343  0.82990138  0.61830197    -0.57200
O61         O  0.45876184  0.78705705  0.62473524    -0.47300
O62         O  0.39871905  0.84537619  0.64457131    -0.53700
C63         C  0.38842970  0.76471846  0.69343799     0.86400
O64         O  0.37794419  0.70091188  0.63069195    -0.55500
O65         O  0.41623502  0.77172052  0.58863542    -0.58800
In66       In  0.38607239  0.07265033  0.63283486     1.36900
C67         C  0.38385884  0.98495519  0.63675295     0.78900
O68         O  0.41341368  0.07424096  0.58616347    -0.59600
O69         O  0.45774688  0.07963861  0.62263895    -0.50500
C70         C  0.32360043  0.12930652  0.61731180     0.71500
O71         O  0.31890831  0.08753033  0.61492310    -0.45400
C72         C  0.38360137  0.08936550  0.69080248     0.76200
O73         O  0.35487508  0.00608960  0.62206596    -0.57200
O74         O  0.41121391  0.10796671  0.67380045    -0.47300
O75         O  0.41305489  0.00864359  0.64870961    -0.53700
C76         C  0.45281610  0.07570524  0.59488036     0.86400
O77         O  0.36126061  0.14197471  0.62566711    -0.55500
O78         O  0.35686799  0.06368208  0.67790045    -0.58800
In79       In  0.37412559  0.07248672  0.83253270     1.36900
C80         C  0.45952138  0.08162561  0.83091040     0.78900
O81         O  0.37896254  0.04758224  0.87974895    -0.59600
O82         O  0.37376101  0.99997120  0.84480531    -0.50500
C83         C  0.30701465  0.12392850  0.84661751     0.71500
O84         O  0.34624697  0.13795411  0.84749400    -0.45400
C85         C  0.36215829  0.07221281  0.77403546     0.76200
O86         O  0.43617859  0.10933575  0.84509930    -0.57200
O87         O  0.34718286  0.04171402  0.79079679    -0.47300
O88         O  0.43900489  0.05075690  0.81803020    -0.53700
C89         C  0.37974815  0.00702904  0.87223544     0.86400
O90         O  0.30266249  0.08328730  0.83986051    -0.55500
O91         O  0.38132162  0.10376451  0.78740128    -0.58800
In92       In  0.66549400  0.08611314  0.83753464     1.36900
C93         C  0.58102524  0.10302143  0.84261296     0.78900
O94         O  0.65644875  0.11385242  0.79129101    -0.59600
O95         O  0.69837819  0.05763715  0.79691579    -0.50500
C96         C  0.72440087  0.14698689  0.85190650     0.71500
O97         O  0.68368078  0.15410058  0.85332453    -0.45400
C98         C  0.66380928  0.01352947  0.87251469     0.76200
O99         O  0.60869903  0.12166939  0.85946204    -0.57200
O100        O  0.65604579  0.01214794  0.84496960    -0.47300
O101        O  0.59713326  0.07756085  0.82327364    -0.53700
C102        C  0.68091905  0.08538972  0.77910713     0.86400
O103        O  0.73513214  0.10779513  0.84450981    -0.55500
O104        O  0.67604743  0.05122495  0.88174583    -0.58800
C105        C  0.39723454  0.93048102  0.94018657     0.87800
C106        C  0.37936729  0.97108947  0.92282628    -0.52500
C107        C  0.39044724  0.97083411  0.89332291     0.10700
C108        C  0.41892611  0.93078961  0.88419233     0.21600
C109        C  0.38081499  0.88923732  0.92316800    -0.53200
C110        C  0.39192475  0.88973363  0.89366400     0.10800
C111        C  0.44688466  0.93139452  0.93503777    -0.52700
C112        C  0.45843229  0.93153816  0.90580583     0.11400
H113        H  0.36025505  0.99763164  0.93290058     0.15900
H114        H  0.42865411  0.93100297  0.86035934     0.01600
H115        H  0.36256285  0.86211493  0.93349172     0.16200
H116        H  0.47095191  0.93179166  0.95303243     0.16000
C117        C  0.39845457  0.92911440  0.03111823     0.87800
C118        C  0.38203273  0.88778616  0.04806298    -0.52500
C119        C  0.39368905  0.88734639  0.07755630     0.10700
C120        C  0.42122059  0.92830251  0.08713648     0.21600
C121        C  0.38103796  0.96932459  0.04846399    -0.53200
C122        C  0.39272743  0.96889591  0.07794900     0.10800
C123        C  0.44822049  0.92969160  0.03622125    -0.52700
C124        C  0.46047563  0.92932797  0.06542020     0.11400
H125        H  0.36360814  0.86098204  0.03757403     0.15900
H126        H  0.43134839  0.92801640  0.11095556     0.01600
H127        H  0.36209161  0.99615094  0.03822747     0.16200
H128        H  0.47188817  0.93047315  0.01816283     0.16000
C129        C  0.65261649  0.93296934  0.93900749     0.87800
C130        C  0.66976590  0.89266769  0.92147524    -0.52500
C131        C  0.65773047  0.89335846  0.89203997     0.10700
C132        C  0.62907324  0.93388237  0.88313304     0.21600
C133        C  0.66861540  0.97445796  0.92192172    -0.53200
C134        C  0.65632682  0.97494488  0.89252507     0.10800
C135        C  0.60281047  0.93232630  0.93420796    -0.52700
C136        C  0.59027409  0.93274923  0.90507704     0.11400
H137        H  0.68882915  0.86574826  0.93148658     0.15900
H138        H  0.61849749  0.93417774  0.85939634     0.01600
H139        H  0.68677634  0.00151773  0.93231931     0.16200
H140        H  0.57933485  0.93163309  0.95238512     0.16000
C141        C  0.65382942  0.93171359  0.03008279     0.87800
C142        C  0.67160376  0.97186692  0.04763708    -0.52500
C143        C  0.66078667  0.97080093  0.07719335     0.10700
C144        C  0.63257502  0.93018884  0.08619263     0.21600
C145        C  0.67056887  0.89004366  0.04677392    -0.53200
C146        C  0.65973501  0.88949530  0.07631197     0.10800
C147        C  0.60417415  0.93217451  0.03543251    -0.52700
C148        C  0.59274232  0.93134128  0.06471023     0.11400
H149        H  0.69021762  0.99894219  0.03756597     0.15900
H150        H  0.62305963  0.92952122  0.11006089     0.01600
H151        H  0.68864182  0.86321850  0.03616171     0.16200
H152        H  0.58000194  0.93286384  0.01750301     0.16000
C153        C  0.52643872  0.80455265  0.52849035     0.87800
C154        C  0.56799970  0.78880751  0.54509969    -0.52500
C155        C  0.56844558  0.80027788  0.57460366     0.10700
C156        C  0.52774096  0.82670485  0.58449161     0.21600
C157        C  0.48782554  0.78530523  0.54625237    -0.53200
C158        C  0.48873946  0.79655826  0.57575805     0.10800
C159        C  0.52462163  0.85507592  0.53366066    -0.52700
C160        C  0.52548947  0.86690826  0.56287255     0.11400
H161        H  0.59471154  0.77099248  0.53448050     0.15900
H162        H  0.52825263  0.83666302  0.60830459     0.01600
H163        H  0.46199644  0.76506589  0.53637263     0.16200
H164        H  0.52359037  0.87955735  0.51565420     0.16000
C165        C  0.52372181  0.80525369  0.43741787     0.87800
C166        C  0.48290839  0.78875250  0.42043203    -0.52500
C167        C  0.48291745  0.80019664  0.39084547     0.10700
C168        C  0.52345571  0.82752380  0.38124541     0.21600
C169        C  0.56329245  0.78708185  0.42028075    -0.53200
C170        C  0.56299459  0.79847207  0.39073994     0.10800
C171        C  0.52470023  0.85582470  0.43196927    -0.52700
C172        C  0.52457563  0.86775794  0.40266199     0.11400
H173        H  0.45623023  0.77050320  0.43089896     0.15900
H174        H  0.52347728  0.83748925  0.35735314     0.01600
H175        H  0.58957905  0.76784533  0.43065527     0.16200
H176        H  0.52557186  0.88022727  0.44984260     0.16000
C177        C  0.53072712  0.06391272  0.52835608     0.87800
C178        C  0.49019113  0.08077055  0.54525401    -0.52500
C179        C  0.49024674  0.06889762  0.57475618     0.10700
C180        C  0.53041806  0.04103435  0.58441938     0.21600
C181        C  0.57077197  0.08130872  0.54584352    -0.53200
C182        C  0.57035891  0.06963891  0.57538832     0.10800
C183        C  0.53090015  0.01328715  0.53359379    -0.52700
C184        C  0.53058369  0.00107099  0.56283370     0.11400
H185        H  0.46335792  0.09896160  0.53470346     0.15900
H186        H  0.53022869  0.03074356  0.60825400     0.01600
H187        H  0.59710687  0.10056741  0.53578053     0.16200
H188        H  0.53061979  0.98903806  0.51562108     0.16000
C189        C  0.53020773  0.06418434  0.43710178     0.87800
C190        C  0.57068747  0.08083003  0.42013921    -0.52500
C191        C  0.57063807  0.06944318  0.39064014     0.10700
C192        C  0.52977424  0.04232314  0.38097158     0.21600
C193        C  0.49047055  0.08260000  0.41981237    -0.53200
C194        C  0.49013170  0.07124596  0.39029969     0.10800
C195        C  0.52909187  0.01363717  0.43180222    -0.52700
C196        C  0.52878912  0.00194323  0.40253308     0.11400
H197        H  0.59760172  0.09865248  0.43073232     0.15900
H198        H  0.52954669  0.03250237  0.35713432     0.01600
H199        H  0.46431456  0.10159165  0.43016793     0.16200
H200        H  0.52841025  0.98907364  0.44975719     0.16000
In201      In  0.67182812  0.07441962  0.13676353     1.36900
C202        C  0.58583500  0.07679446  0.14019922     0.78900
O203        O  0.67292819  0.04766948  0.08994260    -0.59600
O204        O  0.67381557  0.00117624  0.12582173    -0.50500
C205        C  0.72444815  0.14021822  0.12019525     0.71500
O206        O  0.68318912  0.14423039  0.12060764    -0.45400
C207        C  0.69144255  0.07549575  0.19443822     0.76200
O208        O  0.60669097  0.10571655  0.12523861    -0.57200
O209        O  0.71015284  0.04901457  0.17662890    -0.47300
O210        O  0.60900782  0.04775936  0.15314578    -0.53700
C211        C  0.67056425  0.00736861  0.09808944     0.86400
O212        O  0.73869239  0.10156819  0.12657623    -0.55500
O213        O  0.66425596  0.10186553  0.18246458    -0.58800
In214      In  0.37896491  0.07746584  0.13368021     1.36900
C215        C  0.46344574  0.09469325  0.12960102     0.78900
O216        O  0.38997545  0.10410664  0.17943733    -0.59600
O217        O  0.34472446  0.05057990  0.17475206    -0.50500
C218        C  0.32065431  0.13851541  0.11788152     0.71500
O219        O  0.36135220  0.14604701  0.11836601    -0.45400
C220        C  0.38310352  0.00631768  0.09819104     0.76200
O221        O  0.43559022  0.11631085  0.11439616    -0.57200
O222        O  0.38814257  0.00358368  0.12599787    -0.47300
O223        O  0.44763842  0.06542026  0.14675017    -0.53700
C224        C  0.36438361  0.07712889  0.19214011     0.86400
O225        O  0.30963320  0.09883752  0.12424121    -0.55500
O226        O  0.37170678  0.04443360  0.08892156    -0.58800
In227      In  0.68029890  0.07972599  0.33656310     1.36900
C228        C  0.69657895  0.99351346  0.34129147     0.78900
O229        O  0.64584752  0.08940221  0.38056432    -0.59600
O230        O  0.60750284  0.07015797  0.34339858    -0.50500
C231        C  0.74065747  0.13926251  0.35097690     0.71500
O232        O  0.74781955  0.09777201  0.35181996    -0.45400
C233        C  0.67865007  0.09478509  0.27813476     0.76200
O234        O  0.71681528  0.02136877  0.35732419    -0.57200
O235        O  0.65314884  0.11467300  0.29579161    -0.47300
O236        O  0.66952573  0.01030503  0.32310035    -0.53700
C237        C  0.60873811  0.07735717  0.37096977     0.86400
O238        O  0.70181671  0.15033848  0.34416316    -0.55500
O239        O  0.70576874  0.06880567  0.29052663    -0.58800
In240      In  0.66645441  0.78279272  0.33306213     1.36900
C241        C  0.67523429  0.86986797  0.32990975     0.78900
O242        O  0.69816941  0.78771600  0.28838594    -0.59600
O243        O  0.63892584  0.75028063  0.29191070    -0.50500
C244        C  0.72101588  0.71895281  0.35009550     0.71500
O245        O  0.73220569  0.75967572  0.34932383    -0.45400
C246        C  0.59955146  0.78839408  0.37050738     0.76200
O247        O  0.70153370  0.84651789  0.34546094    -0.57200
O248        O  0.59418061  0.78317631  0.34284410    -0.47300
O249        O  0.64585645  0.84851349  0.31630363    -0.53700
C250        C  0.66893826  0.76530409  0.27522476     0.86400
O251        O  0.68116300  0.71144950  0.34409710    -0.55500
O252        O  0.63895018  0.78693165  0.37927967    -0.58800
In253      In  0.37991645  0.77648699  0.13227842     1.36900
C254        C  0.46403682  0.75832117  0.12614526     0.78900
O255        O  0.36933460  0.81243708  0.08845314    -0.59600
O256        O  0.39267204  0.85000486  0.12504427    -0.50500
C257        C  0.32234640  0.71339571  0.11829769     0.71500
O258        O  0.36314218  0.70658691  0.11936502    -0.45400
C259        C  0.36427256  0.78043666  0.19053661     0.76200
O260        O  0.43572610  0.74163720  0.10886833    -0.57200
O261        O  0.34584129  0.80644863  0.17201827    -0.47300
O262        O  0.44875671  0.78256270  0.14646069    -0.53700
C263        C  0.38422087  0.84923218  0.09759472     0.86400
O264        O  0.31078830  0.75327378  0.12324227    -0.55500
O265        O  0.38951446  0.75198897  0.17912087    -0.58800
In266      In  0.67203714  0.78250290  0.13393069     1.36900
C267        C  0.58629303  0.77504053  0.13754704     0.78900
O268        O  0.66605949  0.75199836  0.17915721    -0.59600
O269        O  0.70626920  0.80988382  0.17456700    -0.50500
C270        C  0.72940003  0.72095367  0.11795006     0.71500
O271        O  0.68846636  0.71444289  0.11701956    -0.45400
C272        C  0.66914542  0.85167246  0.09649232     0.76200
O273        O  0.60807373  0.74999201  0.12047153    -0.57200
O274        O  0.67223527  0.85625209  0.12430972    -0.47300
O275        O  0.60838852  0.80283371  0.15217540    -0.53700
C276        C  0.68949782  0.78104063  0.19184949     0.86400
O277        O  0.74090562  0.76000748  0.12530673    -0.55500
O278        O  0.67182027  0.81190591  0.08759210    -0.58800
In279      In  0.38199442  0.08639325  0.33461165     1.36900
C280        C  0.36025238  0.00133028  0.34020511     0.78900
O281        O  0.35360202  0.07523369  0.28901342    -0.59600
O282        O  0.41164081  0.11428522  0.29248814    -0.50500
C283        C  0.32942249  0.15447387  0.34666569     0.71500
O284        O  0.31720055  0.11427194  0.34896025    -0.45400
C285        C  0.45251613  0.08075140  0.37025475     0.76200
O286        O  0.34036362  0.03116921  0.35466993    -0.57200
O287        O  0.45467395  0.07672693  0.34239489    -0.47300
O288        O  0.39014490  0.01558210  0.32336349    -0.53700
C289        C  0.38313937  0.09677330  0.27563068     0.86400
O290        O  0.36925413  0.15972445  0.33990984    -0.55500
O291        O  0.41497092  0.09110954  0.37968886    -0.58800
In292      In  0.37803954  0.78870543  0.33244926     1.36900
C293        C  0.37149479  0.87631663  0.32803605     0.78900
O294        O  0.40687148  0.78652098  0.37902103    -0.59600
O295        O  0.45042731  0.79064639  0.34249830    -0.50500
C296        C  0.31617821  0.73159769  0.34880613     0.71500
O297        O  0.31019717  0.77338151  0.34855209    -0.45400
C298        C  0.37897386  0.76779053  0.27504796     0.76200
O299        O  0.34692791  0.85451390  0.34551658    -0.57200
O300        O  0.40585494  0.75086939  0.29354257    -0.47300
O301        O  0.39768697  0.85323434  0.31305459    -0.53700
C302        C  0.44588225  0.79130648  0.37035338     0.86400
O303        O  0.35455768  0.71920851  0.34213599    -0.55500
O304        O  0.35076496  0.79345929  0.28626583    -0.58800
In305      In  0.87874439  0.58576411  0.83164726     1.36900
C306        C  0.87635985  0.49893475  0.83473879     0.78900
O307        O  0.83939764  0.57059455  0.79073351    -0.59600
O308        O  0.89990705  0.60551369  0.78528068    -0.50500
C309        C  0.82882671  0.65480873  0.84478000     0.71500
O310        O  0.81699474  0.61496262  0.85017449    -0.45400
C311        C  0.94581021  0.58436370  0.86968225     0.76200
O312        O  0.84602971  0.52189647  0.84651919    -0.57200
O313        O  0.95102638  0.59014594  0.84194937    -0.47300
O314        O  0.90606391  0.52060002  0.82168802    -0.53700
C315        C  0.86676345  0.58749159  0.77295024     0.86400
O316        O  0.86711026  0.65907580  0.83439655    -0.55500
O317        O  0.90633325  0.58460036  0.87816250    -0.58800
In318      In  0.87360103  0.28988339  0.83344945     1.36900
C319        C  0.85574363  0.37451013  0.84217128     0.78900
O320        O  0.90583970  0.28578645  0.87837721    -0.59600
O321        O  0.94683315  0.29477380  0.84067154    -0.50500
C322        C  0.82683674  0.21819517  0.84585837     0.71500
O323        O  0.81393872  0.25726706  0.85184290    -0.45400
C324        C  0.86513815  0.28844414  0.77445156     0.76200
O325        O  0.83051514  0.34452707  0.85228198    -0.57200
O326        O  0.89740842  0.27045411  0.78779147    -0.47300
O327        O  0.88847252  0.36038590  0.82796488    -0.53700
C328        C  0.94398927  0.29315351  0.86870381     0.86400
O329        O  0.86492969  0.21566748  0.83505610    -0.55500
O330        O  0.83732469  0.30621616  0.79128940    -0.58800
In331      In  0.16683059  0.58241269  0.83289344     1.36900
C332        C  0.17023143  0.49489295  0.83005158     0.78900
O333        O  0.13886496  0.58322259  0.87931400    -0.59600
O334        O  0.09460058  0.58612476  0.84270503    -0.50500
C335        C  0.22951156  0.63767995  0.84981017     0.71500
O336        O  0.23351063  0.59575408  0.85147673    -0.45400
C337        C  0.17056972  0.59894685  0.77481598     0.76200
O338        O  0.19725431  0.51655987  0.84585648    -0.57200
O339        O  0.14202002  0.61706712  0.79124882    -0.47300
O340        O  0.14247674  0.51803138  0.81603196    -0.53700
C341        C  0.09953804  0.58212284  0.87050150     0.86400
O342        O  0.19230020  0.65147539  0.84106891    -0.58700
O343        O  0.19793442  0.57456640  0.78842350    -0.58800
In344      In  0.17199044  0.28476086  0.83673957     1.36900
C345        C  0.18861108  0.37068043  0.84141197     0.78900
O346        O  0.19698445  0.29623549  0.79068158    -0.59600
O347        O  0.14649058  0.24796925  0.79617025    -0.50500
C348        C  0.23519373  0.22768564  0.85131424     0.71500
O349        O  0.24041728  0.26944051  0.85172988    -0.45400
C350        C  0.09968485  0.28943856  0.87041982     0.76200
O351        O  0.20684198  0.34260324  0.85853704    -0.57200
O352        O  0.09902520  0.29564480  0.84267787    -0.47300
O353        O  0.16348174  0.35428175  0.82194556    -0.53700
C354        C  0.17164767  0.26852942  0.77842829     0.86400
O355        O  0.19654703  0.21489791  0.84534226    -0.55500
O356        O  0.13619863  0.27615650  0.88046221    -0.58800
In357      In  0.18272521  0.28210617  0.63565505     1.36900
C358        C  0.09960241  0.26034492  0.62930089     0.78900
O359        O  0.17143728  0.25377248  0.68150664    -0.59600
O360        O  0.20807476  0.31396959  0.67766943    -0.50500
C361        C  0.25184268  0.23254949  0.62334584     0.71500
O362        O  0.21299174  0.21855853  0.62001411    -0.45400
C363        C  0.17495072  0.35032630  0.59753332     0.76200
O364        O  0.12941528  0.23560178  0.61892701    -0.57200
O365        O  0.17289230  0.35506012  0.62537167    -0.47300
O366        O  0.11306399  0.29401452  0.64339550    -0.53700
C367        C  0.19146903  0.28484493  0.69470710     0.86400
O368        O  0.25521225  0.27258969  0.63175561    -0.55500
O369        O  0.18527556  0.31154899  0.58926791    -0.58800
In370      In  0.89066662  0.28124875  0.63258130     1.36900
C371        C  0.97667373  0.28073170  0.63249385     0.78900
O372        O  0.88857972  0.31289380  0.58699714    -0.59600
O373        O  0.88396736  0.35549429  0.62458859    -0.50500
C374        C  0.83075470  0.22155188  0.61684182     0.71500
O375        O  0.87122969  0.21602814  0.61193612    -0.45400
C376        C  0.88423475  0.27058974  0.69109755     0.76200
O377        O  0.95532209  0.24957486  0.62000272    -0.57200
O378        O  0.86345069  0.30114720  0.67730136    -0.47300
O379        O  0.95397170  0.31087513  0.64426900    -0.53700
C380        C  0.88811674  0.35243400  0.59669241     0.86400
O381        O  0.82075784  0.25908396  0.62777206    -0.55500
O382        O  0.90628523  0.24498197  0.67480677    -0.58800
In383      In  0.88762280  0.58715591  0.62964053     1.36900
C384        C  0.97184011  0.60047847  0.62224431     0.78900
O385        O  0.90647205  0.62308895  0.67120559    -0.59600
O386        O  0.86266229  0.56818950  0.67570438    -0.50500
C387        C  0.82620544  0.64530225  0.61430337     0.71500
O388        O  0.86623557  0.65103866  0.60836667    -0.45400
C389        C  0.88741648  0.51274026  0.59666621     0.76200
O390        O  0.94409270  0.62465922  0.60871137    -0.57200
O391        O  0.89169712  0.51171882  0.62461756    -0.47300
O392        O  0.95589099  0.57056784  0.63882332    -0.53700
C393        C  0.88468583  0.59858451  0.68850951     0.86400
O394        O  0.81704350  0.60820981  0.62649757    -0.55500
O395        O  0.87832110  0.55084957  0.58622161    -0.58800
In396      In  0.17809174  0.57302180  0.63384728     1.36900
C397        C  0.09280344  0.57898578  0.63458935     0.78900
O398        O  0.17761249  0.54456067  0.58758816    -0.59600
O399        O  0.17812711  0.49923140  0.62414938    -0.50500
C400        C  0.23570713  0.63375375  0.61737828     0.71500
O401        O  0.19480916  0.64027153  0.61572832    -0.45400
C402        C  0.19221488  0.57776250  0.69214969     0.76200
O403        O  0.11543523  0.60627537  0.61945806    -0.57200
O404        O  0.21095376  0.54881691  0.67609447    -0.47300
O405        O  0.11398566  0.55019439  0.64925546    -0.53700
C406        C  0.17429190  0.50463449  0.59634548     0.86400
O407        O  0.24713225  0.59498441  0.62578609    -0.55500
O408        O  0.16792714  0.60488073  0.67814621    -0.58800
C409        C  0.02235138  0.56524857  0.93716395     0.87800
C410        C  0.06282461  0.58285370  0.92042692    -0.52500
C411        C  0.06254860  0.57278708  0.89069255     0.10700
C412        C  0.02227756  0.54540671  0.88066776     0.21600
C413        C  0.98237723  0.58382226  0.91999648    -0.53200
C414        C  0.98258548  0.57386394  0.89022892     0.10800
C415        C  0.02183403  0.51492326  0.93106814    -0.52700
C416        C  0.02187204  0.50415046  0.90164485     0.11400
H417        H  0.08958950  0.60068810  0.93118359     0.15900
H418        H  0.02225576  0.53642896  0.85667321     0.01600
H419        H  0.95600580  0.60232584  0.93048717     0.16200
H420        H  0.02174505  0.48976226  0.94866053     0.16000
C421        C  0.02372285  0.56253294  0.02883512     0.87800
C422        C  0.98441182  0.58035902  0.04664481    -0.52500
C423        C  0.98553519  0.56844468  0.07617294     0.10700
C424        C  0.02520336  0.53922447  0.08489037     0.21600
C425        C  0.06491002  0.57869536  0.04569240    -0.53200
C426        C  0.06534559  0.56681144  0.07523316     0.10800
C427        C  0.02292435  0.51189898  0.03393165    -0.52700
C428        C  0.02376375  0.49948610  0.06314102     0.11400
H429        H  0.95803262  0.60003758  0.03680474     0.15900
H430        H  0.02583301  0.52871598  0.10868452     0.01600
H431        H  0.09153978  0.59693401  0.03515921     0.16200
H432        H  0.02200015  0.48777666  0.01588924     0.16000
C433        C  0.02083342  0.30712049  0.93587293     0.87800
C434        C  0.98074760  0.29066187  0.91837864    -0.52500
C435        C  0.98151499  0.30190314  0.88881287     0.10700
C436        C  0.02246345  0.32917335  0.87962829     0.21600
C437        C  0.06082592  0.28859353  0.91937904    -0.53200
C438        C  0.06183596  0.29992696  0.88978910     0.10800
C439        C  0.02211187  0.35769479  0.93034446    -0.52700
C440        C  0.02284237  0.36963327  0.90102108     0.11400
H441        H  0.95367471  0.27267453  0.92860872     0.15900
H442        H  0.02303180  0.33898852  0.85572386     0.01600
H443        H  0.08654566  0.26925815  0.93029041     0.16200
H444        H  0.02201474  0.38212361  0.94820637     0.16000
C445        C  0.01886365  0.30433417  0.02708540     0.87800
C446        C  0.05787611  0.28389493  0.04415804    -0.52500
C447        C  0.05854347  0.29447166  0.07378401     0.10700
C448        C  0.02029002  0.32483583  0.08338391     0.21600
C449        C  0.97768401  0.28892955  0.04395035    -0.53200
C450        C  0.97863156  0.29949199  0.07361540     0.10800
C451        C  0.02185925  0.35461395  0.03288625    -0.52700
C452        C  0.02248078  0.36556757  0.06224534     0.11400
H453        H  0.08321196  0.26396412  0.03364125     0.15900
H454        H  0.02094312  0.33414654  0.10731452     0.01600
H455        H  0.95018823  0.27202158  0.03338150     0.16200
H456        H  0.02292208  0.37959582  0.01519271     0.16000
C457        C  0.15622010  0.42688678  0.52945402     0.87800
C458        C  0.17363188  0.46789838  0.54629352    -0.52500
C459        C  0.16332493  0.46774056  0.57594486     0.10700
C460        C  0.13558083  0.42724420  0.58574376     0.21600
C461        C  0.17382656  0.38617136  0.54683680    -0.53200
C462        C  0.16333342  0.38658601  0.57647622     0.10800
C463        C  0.10659504  0.42686902  0.53509277    -0.52700
C464        C  0.09545288  0.42719676  0.56445448     0.11400
H465        H  0.19208342  0.49467305  0.53573261     0.15900
H466        H  0.12638011  0.42751459  0.60966675     0.01600
H467        H  0.19258409  0.35947321  0.53664497     0.16200
H468        H  0.08223804  0.42707003  0.51727934     0.16000
C469        C  0.15689893  0.42876367  0.43790838     0.87800
C470        C  0.17126564  0.38718196  0.42038777    -0.52500
C471        C  0.16003174  0.38893309  0.39078460     0.10700
C472        C  0.13467990  0.43151608  0.38174821     0.21600
C473        C  0.17632173  0.46897513  0.42097680    -0.53200
C474        C  0.16501827  0.47010472  0.39139051     0.10800
C475        C  0.10736399  0.43208627  0.43260353    -0.52700
C476        C  0.09538064  0.43347471  0.40339702     0.11400
H477        H  0.18821503  0.35889926  0.43047505     0.15900
H478        H  0.12467714  0.43275714  0.35790271     0.01600
H479        H  0.19623408  0.49462061  0.43150094     0.16200
H480        H  0.08355610  0.43306076  0.45056996     0.16000
C481        C  0.90194502  0.43318113  0.53064637     0.87800
C482        C  0.88480777  0.39201225  0.54750230    -0.52500
C483        C  0.89572796  0.39162575  0.57714133     0.10700
C484        C  0.92338165  0.43248856  0.58694929     0.21600
C485        C  0.88467584  0.47371713  0.54770431    -0.53200
C486        C  0.89570174  0.47363230  0.57730757     0.10800
C487        C  0.95155121  0.43307527  0.53626886    -0.52700
C488        C  0.96322293  0.43250290  0.56556792     0.11400
H489        H  0.86704484  0.36494199  0.53680145     0.15900
H490        H  0.93300854  0.43211280  0.61086122     0.01600
H491        H  0.86671226  0.50088876  0.53705226     0.16200
H492        H  0.97560117  0.43290970  0.51843635     0.16000
C493        C  0.90247227  0.43794458  0.43948842     0.87800
C494        C  0.88640118  0.48043126  0.42340639    -0.52500
C495        C  0.89731259  0.48178882  0.39385844     0.10700
C496        C  0.92369650  0.44084005  0.38338596     0.21600
C497        C  0.88391263  0.39884629  0.42139644    -0.53200
C498        C  0.89482132  0.40048835  0.39188286     0.10800
C499        C  0.95212052  0.43673443  0.43408012    -0.52700
C500        C  0.96346555  0.43825808  0.40478430     0.11400
H501        H  0.86878624  0.50718391  0.43443136     0.15900
H502        H  0.93320353  0.44199175  0.35952824     0.01600
H503        H  0.86469355  0.37192474  0.43112993     0.16200
H504        H  0.97631380  0.43480400  0.45195793     0.16000
In505      In  0.17832544  0.57588605  0.33349771     1.36900
C506        C  0.09276515  0.58102270  0.33444767     0.78900
O507        O  0.16422806  0.61647297  0.29296830    -0.59600
O508        O  0.19812305  0.55464611  0.28724223    -0.50500
C509        C  0.24652819  0.62610372  0.34719822     0.71500
O510        O  0.20743366  0.63862165  0.35187088    -0.45400
C511        C  0.17568953  0.50759075  0.37118220     0.76200
O512        O  0.11605493  0.61035901  0.34743705    -0.57200
O513        O  0.18186963  0.50237223  0.34353948    -0.47300
O514        O  0.11347632  0.55018572  0.32172397    -0.53700
C515        C  0.18045768  0.58871490  0.27512854     0.86400
O516        O  0.25056248  0.58674956  0.33747041    -0.55500
O517        O  0.17568280  0.54770125  0.37982294    -0.58800
In518      In  0.88632232  0.59185315  0.33842473     1.36900
C519        C  0.97138776  0.60592917  0.34378529     0.78900
O520        O  0.88125984  0.55924133  0.38380647    -0.59600
O521        O  0.89062348  0.51778408  0.34624305    -0.50500
C522        C  0.82792584  0.65380606  0.35206703     0.71500
O523        O  0.86839841  0.66191225  0.35005481    -0.45400
C524        C  0.87121869  0.58893721  0.27991365     0.76200
O525        O  0.94416384  0.62831098  0.35865558    -0.57200
O526        O  0.85158581  0.56354364  0.29807477    -0.47300
O527        O  0.95463848  0.57805629  0.32611762    -0.53700
C528        C  0.88859811  0.52046683  0.37418282     0.86400
O529        O  0.81738596  0.61332099  0.34843788    -0.55500
O530        O  0.89741511  0.61620183  0.29180350    -0.58800
In531      In  0.88650402  0.58503118  0.13754092     1.36900
C532        C  0.87594924  0.49754427  0.14012849     0.78900
O533        O  0.91056872  0.58133878  0.09022292    -0.59600
O534        O  0.95790131  0.58348187  0.12513476    -0.50500
C535        C  0.83389558  0.65181249  0.12230205     0.71500
O536        O  0.82106750  0.61156059  0.12267306    -0.45400
C537        C  0.88859655  0.60164884  0.19568999     0.76200
O538        O  0.84977710  0.52165287  0.12498171    -0.57200
O539        O  0.91824022  0.61521168  0.17817084    -0.47300
O540        O  0.90563326  0.51840898  0.15377796    -0.53700
C541        C  0.95050293  0.57898298  0.09760650     0.86400
O542        O  0.87403527  0.65742554  0.12830694    -0.55500
O543        O  0.85737097  0.58104706  0.18326773    -0.58800
In544      In  0.87500117  0.28674258  0.13204221     1.36900
C545        C  0.85630064  0.37300469  0.12774169     0.78900
O546        O  0.84826594  0.29748765  0.17786166    -0.59600
O547        O  0.90772952  0.26082191  0.17389454    -0.50500
C548        C  0.82498826  0.21604310  0.12095105     0.71500
O549        O  0.81044528  0.25557180  0.11923412    -0.45400
C550        C  0.94192870  0.29113418  0.09420580     0.76200
O551        O  0.83324072  0.34421025  0.11427811    -0.57200
O552        O  0.94690505  0.29172183  0.12209217    -0.47300
O553        O  0.88742632  0.35707198  0.14304304    -0.53700
C554        C  0.87926597  0.27738714  0.19098829     0.86400
O555        O  0.86536470  0.21300715  0.12693819    -0.55500
O556        O  0.90291450  0.28515553  0.08555184    -0.58800
In557      In  0.17011973  0.57231783  0.13298335     1.36900
C558        C  0.16987677  0.48521953  0.13181373     0.78900
O559        O  0.21339528  0.55653226  0.17179703    -0.59600
O560        O  0.15357120  0.59182021  0.17987617    -0.50500
C561        C  0.21885792  0.64214344  0.12027697     0.71500
O562        O  0.23044642  0.60273221  0.11348096    -0.45400
C563        C  0.10278077  0.57451889  0.09557138     0.76200
O564        O  0.19958055  0.50704832  0.11823308    -0.57200
O565        O  0.09806883  0.57822755  0.12348362    -0.47300
O566        O  0.14156810  0.50814727  0.14524086    -0.53700
C567        C  0.18799200  0.57374299  0.19065274     0.86400
O568        O  0.18110053  0.64567277  0.13160496    -0.55500
O569        O  0.14208995  0.57427507  0.08669623    -0.58800
In570      In  0.16462860  0.27513088  0.12996639     1.36900
C571        C  0.18575180  0.35996356  0.12339399     0.78900
O572        O  0.13245993  0.27114027  0.08474116    -0.59600
O573        O  0.09245141  0.28602026  0.12189908    -0.50500
C574        C  0.21576165  0.20671115  0.11764050     0.71500
O575        O  0.22878349  0.24674335  0.11606034    -0.45400
C576        C  0.16430296  0.26380193  0.18881362     0.76200
O577        O  0.20576087  0.33000848  0.10912478    -0.57200
O578        O  0.13474190  0.24781381  0.17210221    -0.47300
O579        O  0.15694143  0.34578525  0.14112288    -0.53700
C580        C  0.09515402  0.28262604  0.09400173     0.86400
O581        O  0.17565549  0.20181553  0.12377788    -0.55500
O582        O  0.19432972  0.28453755  0.17533827    -0.58800
In583      In  0.87566090  0.29660757  0.33318237     1.36900
C584        C  0.95887353  0.27322329  0.33717298     0.78900
O585        O  0.88386655  0.26753047  0.28770090    -0.59600
O586        O  0.84828609  0.32838680  0.29131684    -0.50500
C587        C  0.80800938  0.24553395  0.34667845     0.71500
O588        O  0.84725864  0.23225998  0.34898312    -0.45400
C589        C  0.88379214  0.36463026  0.37075119     0.76200
O590        O  0.92954632  0.25139034  0.35071306    -0.57200
O591        O  0.88646645  0.36955259  0.34291531    -0.47300
O592        O  0.94503915  0.30572905  0.32180818    -0.53700
C593        C  0.86351606  0.29852800  0.27443141     0.86400
O594        O  0.80342019  0.28586813  0.33886520    -0.55500
O595        O  0.87329311  0.32585634  0.37913986    -0.58800
In596      In  0.16779251  0.28578046  0.33022897     1.36900
C597        C  0.08185216  0.28493259  0.32644381     0.78900
O598        O  0.16635239  0.31152522  0.37734266    -0.59600
O599        O  0.17327749  0.35861941  0.34211882    -0.50500
C600        C  0.22437914  0.22331533  0.34669619     0.71500
O601        O  0.18334688  0.21712002  0.34727456    -0.45400
C602        C  0.18390884  0.28309151  0.27217028     0.76200
O603        O  0.10216270  0.25535622  0.34140618    -0.57200
O604        O  0.20244358  0.31115922  0.28912695    -0.47300
O605        O  0.10555758  0.31344339  0.31357882    -0.53700
C606        C  0.16770713  0.35208847  0.36965776     0.86400
O607        O  0.23624866  0.26223310  0.33910561    -0.55500
O608        O  0.15880813  0.25582512  0.28518424    -0.58800
C609        C  0.03421075  0.28806135  0.32380110    -0.15200
C610        C  0.00594437  0.26282060  0.33924912    -0.30300
H611        H  0.02200179  0.31453256  0.30925224     0.13900
H612        H  0.01740099  0.23639683  0.35406103     0.14400
C613        C  0.16289934  0.25956318  0.22156045    -0.15200
C614        C  0.18972558  0.28320384  0.23952785    -0.30300
H615        H  0.13729803  0.23875360  0.23110251     0.13900
H616        H  0.21424625  0.30537027  0.23004161     0.14400
C617        C  0.16675247  0.43663553  0.13314939    -0.15200
C618        C  0.19399004  0.40810927  0.11969850    -0.30300
H619        H  0.13960004  0.42381090  0.14630225     0.13900
H620        H  0.22086513  0.41992628  0.10596470     0.14400
C621        C  0.88250044  0.27402880  0.22373464    -0.15200
C622        C  0.85841868  0.30014800  0.24172802    -0.30300
H623        H  0.90658505  0.25113894  0.23319097     0.13900
H624        H  0.83589307  0.32458967  0.23223755     0.14400
C625        C  0.87445889  0.44868678  0.14229079    -0.15200
C626        C  0.84897212  0.42175560  0.12575300    -0.30300
H627        H  0.89831531  0.43404470  0.15758938     0.13900
H628        H  0.82493030  0.43533596  0.11021362     0.14400
C629        C  0.86491450  0.58609877  0.24732072    -0.15200
C630        C  0.89123429  0.60824447  0.22823328    -0.30300
H631        H  0.83994318  0.56347614  0.23888741     0.13900
H632        H  0.91724747  0.62954993  0.23674338     0.14400
C633        C  0.17602140  0.59543272  0.24269825    -0.15200
C634        C  0.19753207  0.57062272  0.22285269    -0.30300
H635        H  0.15297495  0.62076523  0.23495591     0.13900
H636        H  0.22194736  0.54652530  0.23039716     0.14400
C637        C  0.01920075  0.61071330  0.34684298    -0.15200
C638        C  0.04494548  0.58117913  0.33306127    -0.30300
H639        H  0.03301692  0.63697543  0.36062505     0.13900
H640        H  0.03025583  0.55457017  0.31992773     0.14400
C641        C  0.89206731  0.43410733  0.49846836    -0.12000
C642        C  0.89236292  0.43590147  0.47153944    -0.13600
C643        C  0.00935022  0.43731000  0.39600104    -0.12000
C644        C  0.04915713  0.43589586  0.39529927    -0.13600
C645        C  0.04943831  0.42874573  0.57328523    -0.12000
C646        C  0.00954526  0.43055468  0.57388136    -0.13600
C647        C  0.16619086  0.42687733  0.49722051    -0.12000
C648        C  0.16682600  0.42740925  0.47019940    -0.13600
C649        C  0.01863273  0.29519533  0.99486921    -0.12000
C650        C  0.01960097  0.29636731  0.96794058    -0.13600
C651        C  0.02359464  0.41206509  0.07116236    -0.12000
C652        C  0.02383714  0.45254898  0.07141314    -0.13600
C653        C  0.02234029  0.45739217  0.89266907    -0.12000
C654        C  0.02278729  0.41674368  0.89249610    -0.13600
C655        C  0.02293418  0.57344280  0.99661612    -0.12000
C656        C  0.02249968  0.57421372  0.96957568    -0.13600
C657        C  0.01941380  0.60595284  0.61952119    -0.15200
C658        C  0.04524263  0.57896903  0.63575970    -0.30300
H659        H  0.03299327  0.63090694  0.60450795     0.13900
H660        H  0.03091577  0.55414006  0.65058957     0.14400
C661        C  0.02434744  0.28360870  0.63427098    -0.15200
C662        C  0.05238371  0.25207926  0.62517929    -0.30300
H663        H  0.03685706  0.31400866  0.64444412     0.13900
H664        H  0.04086183  0.22153923  0.61476425     0.14400
C665        C  0.17092374  0.26167912  0.74584556    -0.15200
C666        C  0.19461605  0.28790113  0.72744947    -0.30300
H667        H  0.14923074  0.23628062  0.73679911     0.13900
H668        H  0.21529485  0.31409339  0.73659542     0.14400
C669        C  0.17073923  0.60397772  0.74208218    -0.15200
C670        C  0.19687563  0.57858027  0.72487725    -0.30300
H671        H  0.14668899  0.62620360  0.73190597     0.13900
H672        H  0.21988996  0.55530224  0.73510445     0.14400
C673        C  0.16966573  0.44637618  0.82753127    -0.15200
C674        C  0.19475611  0.41909229  0.84410714    -0.30300
H675        H  0.14589611  0.43259121  0.81191214     0.13900
H676        H  0.21789035  0.43224041  0.86035720     0.14400
C677        C  0.86022747  0.29025690  0.74176330    -0.15200
C678        C  0.88518617  0.26553166  0.72377607    -0.30300
H679        H  0.83604951  0.31309031  0.73232369     0.13900
H680        H  0.90839296  0.24175074  0.73331963     0.14400
C681        C  0.86060351  0.58412662  0.74032240    -0.15200
C682        C  0.88716372  0.60503933  0.72108950    -0.30300
H683        H  0.83439826  0.56284670  0.73199618     0.13900
H684        H  0.91250486  0.62730168  0.72950706     0.14400
C685        C  0.87901206  0.45044921  0.83510494    -0.15200
C686        C  0.84846752  0.42269111  0.84591302    -0.30300
H687        H  0.90834307  0.43699148  0.82475776     0.13900
H688        H  0.81891624  0.43510624  0.85644542     0.14400
C689        C  0.27998413  0.70004667  0.35452164    -0.15200
C690        C  0.28476842  0.65587485  0.35047134    -0.30300
H691        H  0.24761609  0.71392557  0.35863129     0.13900
H692        H  0.31696459  0.64216438  0.34554587     0.14400
C693        C  0.29918353  0.19262954  0.34940170    -0.15200
C694        C  0.25573017  0.18675932  0.35252478    -0.30300
H695        H  0.31229996  0.22587662  0.34530534     0.13900
H696        H  0.24252610  0.15346034  0.35625382     0.14400
C697        C  0.35069518  0.95324000  0.34279805    -0.15200
C698        C  0.37200825  0.92493275  0.32492268    -0.30300
H699        H  0.32859232  0.94108364  0.35992685     0.13900
H700        H  0.39398662  0.93799728  0.30795604     0.14400
C701        C  0.76087187  0.68433992  0.11317230    -0.15200
C702        C  0.80412631  0.69002017  0.11749106    -0.30300
H703        H  0.74769869  0.65099034  0.10975099     0.13900
H704        H  0.81728915  0.72335052  0.12107695     0.14400
C705        C  0.24794140  0.68125487  0.11740186    -0.15200
C706        C  0.29123784  0.67648185  0.11322216    -0.30300
H707        H  0.23450144  0.71392799  0.12263220     0.13900
H708        H  0.30485929  0.64347849  0.10920116     0.14400
C709        C  0.35774742  0.78400692  0.22300207    -0.15200
C710        C  0.38154068  0.75973900  0.24268417    -0.30300
H711        H  0.33473080  0.80895206  0.23087998     0.13900
H712        H  0.40548142  0.73569395  0.23483809     0.14400
C713        C  0.51150573  0.75171195  0.12270875    -0.15200
C714        C  0.53876980  0.77369710  0.14094080    -0.30300
H715        H  0.52394328  0.73153761  0.10456091     0.13900
H716        H  0.52557922  0.79455257  0.15852671     0.14400
C717        C  0.75240955  0.68225988  0.35515698    -0.15200
C718        C  0.79576700  0.68986198  0.35630930    -0.30300
H719        H  0.74009300  0.64820599  0.35401464     0.13900
H720        H  0.80807690  0.72395911  0.35689149     0.14400
C721        C  0.66877483  0.75860940  0.24270774    -0.15200
C722        C  0.69498860  0.78249734  0.22449551    -0.30300
H723        H  0.64420847  0.73628091  0.23341334     0.13900
H724        H  0.71818865  0.80635545  0.23370636     0.14400
C725        C  0.77612886  0.17172404  0.35565225    -0.15200
C726        C  0.77026760  0.21555514  0.35065310    -0.30300
H727        H  0.80889770  0.15861811  0.35987811     0.13900
H728        H  0.73765019  0.22868454  0.34595563     0.14400
C729        C  0.70246988  0.94490063  0.34377287    -0.15200
C730        C  0.67674633  0.91841640  0.32723966    -0.30300
H731        H  0.72557428  0.93102895  0.35986218     0.13900
H732        H  0.65324376  0.93307635  0.31167715     0.14400
C733        C  0.28900641  0.17460217  0.11216893    -0.15200
C734        C  0.24562234  0.16840436  0.11481882    -0.30300
H735        H  0.30207992  0.20809199  0.10893998     0.13900
H736        H  0.23246026  0.13507231  0.11849530     0.14400
C737        C  0.35896804  0.07605998  0.22481943    -0.15200
C738        C  0.38506279  0.10042812  0.24286724    -0.30300
H739        H  0.33480986  0.05339404  0.23421167     0.13900
H740        H  0.41009608  0.12201197  0.23339600     0.14400
C741        C  0.75335982  0.17889764  0.11473661    -0.15200
C742        C  0.79706455  0.17601797  0.11818151    -0.30300
H743        H  0.73802398  0.21129950  0.11112984     0.13900
H744        H  0.81231224  0.14366812  0.12220179     0.14400
C745        C  0.69935453  0.07462172  0.22688013    -0.15200
C746        C  0.67567400  0.10013252  0.24552811    -0.30300
H747        H  0.72297387  0.05069813  0.23568151     0.13900
H748        H  0.65144114  0.12341311  0.23670883     0.14400
C749        C  0.51094573  0.10193223  0.12731546    -0.15200
C750        C  0.53816266  0.07538339  0.14284251    -0.30300
H751        H  0.52351439  0.12731343  0.11220954     0.13900
H752        H  0.52499317  0.04967341  0.15749951     0.14400
C753        C  0.53049507  0.07442477  0.46922694    -0.12000
C754        C  0.53072701  0.07448893  0.49620406    -0.13600
C755        C  0.52719487  0.95515924  0.39407153    -0.12000
C756        C  0.52584592  0.91463723  0.39407671    -0.13600
C757        C  0.52862964  0.95418401  0.57123522    -0.12000
C758        C  0.52679803  0.91370599  0.57122286    -0.13600
C759        C  0.52430569  0.79465572  0.46950462    -0.12000
C760        C  0.52541380  0.79431209  0.49643909    -0.13600
C761        C  0.66361120  0.93264920  0.97103018    -0.12000
C762        C  0.66383717  0.93241858  0.99798716    -0.13600
C763        C  0.50681221  0.93018718  0.07356232    -0.12000
C764        C  0.54669177  0.93085846  0.07325681    -0.13600
C765        C  0.50430930  0.93204258  0.89733151    -0.12000
C766        C  0.54407559  0.93238050  0.89706374    -0.13600
C767        C  0.38714551  0.93015816  0.97220575    -0.12000
C768        C  0.38761073  0.92965843  0.99912761    -0.13600
C769        C  0.79858486  0.17869168  0.84918867    -0.15200
C770        C  0.75626575  0.18304121  0.85670304    -0.30300
H771        H  0.81123942  0.14656309  0.84198088     0.13900
H772        H  0.74347374  0.21550891  0.86309666     0.14400
C773        C  0.26852408  0.15286772  0.85109844    -0.15200
C774        C  0.27258361  0.19697704  0.85533929    -0.30300
H775        H  0.23619723  0.13831465  0.84760955     0.13900
H776        H  0.30497044  0.21160515  0.85842681     0.14400
C777        C  0.50714846  0.08328564  0.82859823    -0.15200
C778        C  0.53334818  0.10880321  0.84541572    -0.30300
H779        H  0.52138746  0.05982318  0.81294146     0.13900
H780        H  0.51999050  0.13147861  0.86186682     0.14400
C781        C  0.28674219  0.16040336  0.61286023    -0.15200
C782        C  0.29056489  0.20387568  0.61960931    -0.30300
H783        H  0.25480672  0.14640888  0.60731628     0.13900
H784        H  0.32241656  0.21772492  0.62554188     0.14400
C785        C  0.38336554  0.09597717  0.72334592    -0.15200
C786        C  0.35880235  0.06997013  0.74131327    -0.30300
H787        H  0.40560839  0.12057004  0.73278719     0.13900
H788        H  0.33802016  0.04411886  0.73184712     0.14400
C789        C  0.31004852  0.66543231  0.61812931    -0.15200
C790        C  0.26714160  0.67013951  0.61199354    -0.30300
H791        H  0.32323806  0.63284345  0.62419414     0.13900
H792        H  0.25388360  0.70290730  0.60644613     0.14400
C793        C  0.35734002  0.90792346  0.62733354    -0.15200
C794        C  0.38540225  0.93646540  0.64025221    -0.30300
H795        H  0.33001671  0.91984778  0.61381619     0.13900
H796        H  0.41260705  0.92372666  0.65361657     0.14400
C797        C  0.75226031  0.67750842  0.61861172    -0.15200
C798        C  0.79381595  0.68109728  0.60923689    -0.30300
H799        H  0.74024926  0.64581204  0.62727196     0.13900
H800        H  0.80576184  0.71287346  0.60066051     0.14400
C801        C  0.75580603  0.19076435  0.61896363    -0.15200
C802        C  0.79842244  0.18532034  0.61232987    -0.30300
H803        H  0.74362574  0.22378235  0.62462010     0.13900
H804        H  0.81067971  0.15242099  0.60651933     0.14400
C805        C  0.66377783  0.10833099  0.72726889    -0.15200
C806        C  0.68795624  0.08379769  0.74657608    -0.30300
H807        H  0.63864698  0.13076857  0.73550144     0.13900
H808        H  0.71181332  0.06002757  0.73825718     0.14400
C809        C  0.70418034  0.92191090  0.62633866    -0.15200
C810        C  0.68136291  0.94980218  0.64371094    -0.30300
H811        H  0.72692334  0.93464147  0.60979930     0.13900
H812        H  0.65856864  0.93606554  0.65992142     0.14400
C813        C  0.75669179  0.68921511  0.85415509    -0.15200
C814        C  0.79961523  0.69372423  0.84813293    -0.30300
H815        H  0.74340244  0.65653243  0.85973038     0.13900
H816        H  0.81261313  0.72628195  0.84190472     0.14400
C817        C  0.69346534  0.79271544  0.74245970    -0.15200
C818        C  0.66703379  0.77063036  0.72343427    -0.30300
H819        H  0.71869527  0.81500947  0.73402658     0.13900
H820        H  0.64065082  0.74985547  0.73197406     0.14400
C821        C  0.26467418  0.71152929  0.85004777    -0.15200
C822        C  0.26691523  0.66751037  0.85556981    -0.30300
H823        H  0.23339230  0.72695155  0.84430303     0.13900
H824        H  0.29832362  0.65210641  0.86099270     0.14400
C825        C  0.36418955  0.78754072  0.74328258    -0.15200
C826        C  0.38965493  0.76144699  0.72619721    -0.30300
H827        H  0.34206249  0.81167268  0.73301214     0.13900
H828        H  0.41343815  0.73899212  0.73643860     0.14400
C829        C  0.53450725  0.78427349  0.82718171    -0.15200
C830        C  0.50717046  0.75732545  0.84220743    -0.30300
H831        H  0.52117358  0.81047594  0.81286418     0.13900
H832        H  0.51958749  0.73077504  0.85655119     0.14400
loop_ 
_geom_bond_atom_site_label_1 
_geom_bond_atom_site_label_2 
_geom_bond_distance 
_geom_bond_site_symmetry_2 
_ccdc_geom_bond_type 
In1           O3   2.237       .  S
In1           O4   2.252       .  S
In1          O12   2.234       .  S
In1           O6   2.233       .  S
In1           O8   2.266       .  S
In1           O9   2.237       .  S
In1          O10   2.189       .  S
In1          O13   2.247       .  S
C2            O8   1.265       .  A
C2           O10   1.260       .  A
C2          C830   1.472       .  S
O3           C11   1.260       .  A
O4           C11   1.264       .  A
C5           O12   1.261       .  A
C5            O6   1.265       .  A
C5          C821   1.470       .  S
C7            O9   1.261       .  A
C7           O13   1.261       .  A
C7          C110   1.471       .  S
C11         C825   1.473       .  S
In14         O16   2.258       .  S
In14         O17   2.249       .  S
In14         O25   2.238       .  S
In14         O19   2.242       .  S
In14         O21   2.265       .  S
In14         O22   2.256       .  S
In14         O23   2.197       .  S
In14         O26   2.232       .  S
C15          O21   1.265       .  A
C15          O23   1.256       .  A
C15         C829   1.460       .  S
O16          C24   1.260       .  A
O17          C24   1.259       .  A
C18          O25   1.264       .  A
C18          O19   1.263       .  A
C18         C813   1.475       .  S
C20          O22   1.265       .  A
C20          O26   1.261       .  A
C20         C817   1.476       .  S
C24         C131   1.475       .  S
In27         O29   2.239       .  S
In27         O30   2.254       .  S
In27         O38   2.237       .  S
In27         O32   2.257       .  S
In27         O34   2.277       .  S
In27         O35   2.248       .  S
In27         O36   2.197       .  S
In27         O39   2.263       .  S
C28          O34   1.268   1_565  A
C28          O36   1.256   1_565  A
C28         C810   1.466       .  S
O29          C37   1.262       .  A
O30          C37   1.266       .  A
C31          O38   1.261       .  A
C31          O32   1.266       .  A
C31         C801   1.477       .  S
C33          O35   1.261       .  A
C33          O39   1.261       .  A
C33         C182   1.478       .  S
C37         C805   1.478       .  S
In40         O42   2.260       .  S
In40         O43   2.238       .  S
In40         O51   2.237       .  S
In40         O45   2.244       .  S
In40         O47   2.274       .  S
In40         O48   2.243       .  S
In40         O49   2.206       .  S
In40         O52   2.244       .  S
C41          O47   1.264       .  A
C41          O49   1.259       .  A
C41         C809   1.477       .  S
O42          C50   1.260       .  A
O43          C50   1.258       .  A
C44          O51   1.260       .  A
C44          O45   1.264       .  A
C44         C797   1.472       .  S
C46          O48   1.263       .  A
C46          O52   1.262       .  A
C46         C818   1.473       .  S
C50         C155   1.472       .  S
In53         O55   2.232       .  S
In53         O56   2.253       .  S
In53         O64   2.236       .  S
In53         O58   2.229       .  S
In53         O60   2.263       .  S
In53         O61   2.248       .  S
In53         O62   2.187       .  S
In53         O65   2.250       .  S
C54          O60   1.264       .  A
C54          O62   1.259       .  A
C54         C793   1.470       .  S
O55          C63   1.260       .  A
O56          C63   1.265       .  A
C57          O64   1.262       .  A
C57          O58   1.264       .  A
C57         C789   1.470       .  S
C59          O61   1.260       .  A
C59          O65   1.260       .  A
C59         C158   1.474       .  S
C63         C826   1.473       .  S
In66         O68   2.258       .  S
In66         O69   2.242       .  S
In66         O77   2.228       .  S
In66         O71   2.237       .  S
In66         O73   2.259       .  S
In66         O74   2.255       .  S
In66         O75   2.196       .  S
In66         O78   2.228       .  S
C67          O73   1.265   1_565  A
C67          O75   1.257   1_565  A
C67         C794   1.458       .  S
O68          C76   1.261       .  A
O69          C76   1.260       .  A
C70          O77   1.263       .  A
C70          O71   1.263       .  A
C70         C781   1.470       .  S
C72          O74   1.265       .  A
C72          O78   1.260       .  A
C72         C785   1.475       .  S
C76         C179   1.473       .  S
In79         O81   2.246       .  S
In79         O82   2.235   1_545  S
In79         O90   2.226       .  S
In79         O84   2.242       .  S
In79         O86   2.258       .  S
In79         O87   2.243       .  S
In79         O88   2.183       .  S
In79         O91   2.238       .  S
C80          O86   1.268       .  A
C80          O88   1.256       .  A
C80         C777   1.455       .  S
O81          C89   1.261       .  A
O82          C89   1.262   1_565  A
C83          O90   1.261       .  A
C83          O84   1.267       .  A
C83         C773   1.472       .  S
C85          O87   1.266       .  A
C85          O91   1.262       .  A
C85         C786   1.473       .  S
C89         C107   1.469   1_545  S
In92         O94   2.246       .  S
In92         O95   2.256       .  S
In92        O103   2.238       .  S
In92         O97   2.226       .  S
In92         O99   2.263       .  S
In92        O100   2.254       .  S
In92        O101   2.190       .  S
In92        O104   2.258       .  S
C93          O99   1.261       .  A
C93         O101   1.259       .  A
C93         C778   1.468       .  S
O94         C102   1.260       .  A
O95         C102   1.264       .  A
C96         O103   1.263       .  A
C96          O97   1.260       .  A
C96         C770   1.467       .  S
C98         O100   1.258       .  A
C98         O104   1.259       .  A
C98         C134   1.477   1_545  S
C102        C806   1.478       .  S
C105        C106   1.537       .  S
C105        C111   1.531       .  S
C105        C109   1.537       .  S
C105        C767   1.471       .  S
C106        H113   1.086       .  S
C106        C107   1.368       .  D
C107        C108   1.537       .  S
C108        C112   1.541       .  S
C108        C110   1.537       .  S
C108        H114   1.111       .  S
C109        H115   1.086       .  S
C109        C110   1.368       .  D
C111        H116   1.087       .  S
C111        C112   1.360       .  D
C112        C765   1.450       .  S
C117        C118   1.533       .  S
C117        C123   1.531       .  S
C117        C121   1.532       .  S
C117        C768   1.471   1_554  S
C118        H125   1.086       .  S
C118        C119   1.368       .  D
C119        C263   1.477       .  S
C119        C120   1.546       .  S
C120        C124   1.547       .  S
C120        C122   1.545       .  S
C120        H126   1.111       .  S
C121        H127   1.086       .  S
C121        C122   1.368       .  D
C122        C220   1.476   1_565  S
C123        H128   1.088       .  S
C123        C124   1.360       .  D
C124        C763   1.456       .  S
C129        C130   1.536       .  S
C129        C135   1.531       .  S
C129        C133   1.536       .  S
C129        C761   1.474       .  S
C130        H137   1.086       .  S
C130        C131   1.369       .  D
C131        C132   1.543       .  S
C132        C136   1.542       .  S
C132        C134   1.542       .  S
C132        H138   1.111       .  S
C133        H139   1.086   1_565  S
C133        C134   1.369       .  D
C135        H140   1.088       .  S
C135        C136   1.360       .  D
C136        C766   1.450       .  S
C141        C142   1.537       .  S
C141        C147   1.532       .  S
C141        C145   1.536       .  S
C141        C762   1.474   1_554  S
C142        H149   1.086       .  S
C142        C143   1.369       .  D
C143        C211   1.474   1_565  S
C143        C144   1.541       .  S
C144        C148   1.545       .  S
C144        C146   1.540       .  S
C144        H150   1.111       .  S
C145        H151   1.086       .  S
C145        C146   1.368       .  D
C146        C272   1.472       .  S
C147        H152   1.087       .  S
C147        C148   1.361       .  D
C148        C764   1.456       .  S
C153        C154   1.538       .  S
C153        C159   1.531       .  S
C153        C157   1.534       .  S
C153        C760   1.472       .  S
C154        H161   1.086       .  S
C154        C155   1.370       .  D
C155        C156   1.539       .  S
C156        C160   1.542       .  S
C156        C158   1.541       .  S
C156        H162   1.111       .  S
C157        H163   1.087       .  S
C157        C158   1.368       .  D
C159        H164   1.088       .  S
C159        C160   1.360       .  D
C160        C758   1.451       .  S
C165        C166   1.537       .  S
C165        C171   1.531       .  S
C165        C169   1.534       .  S
C165        C759   1.473       .  S
C166        H173   1.086       .  S
C166        C167   1.369       .  D
C167        C302   1.476       .  S
C167        C168   1.542       .  S
C168        C172   1.544       .  S
C168        C170   1.541       .  S
C168        H174   1.111       .  S
C169        H175   1.087       .  S
C169        C170   1.367       .  D
C170        C246   1.473       .  S
C171        H176   1.088       .  S
C171        C172   1.361       .  D
C172        C756   1.452       .  S
C177        C178   1.539       .  S
C177        C183   1.531       .  S
C177        C181   1.539       .  S
C177        C754   1.475       .  S
C178        H185   1.086       .  S
C178        C179   1.369       .  D
C179        C180   1.539       .  S
C180        C184   1.543       .  S
C180        C182   1.542       .  S
C180        H186   1.111       .  S
C181        H187   1.086       .  S
C181        C182   1.369       .  D
C183        H188   1.088   1_545  S
C183        C184   1.360       .  D
C184        C757   1.451   1_545  S
C189        C190   1.534       .  S
C189        C195   1.532       .  S
C189        C193   1.534       .  S
C189        C753   1.475       .  S
C190        H197   1.086       .  S
C190        C191   1.369       .  D
C191        C237   1.480       .  S
C191        C192   1.547       .  S
C192        C196   1.544       .  S
C192        C194   1.546       .  S
C192        H198   1.111       .  S
C193        H199   1.086       .  S
C193        C194   1.369       .  D
C194        C285   1.479       .  S
C195        H200   1.088   1_545  S
C195        C196   1.361       .  D
C196        C755   1.453   1_545  S
In201       O203   2.253       .  S
In201       O204   2.248       .  S
In201       O212   2.240       .  S
In201       O206   2.234       .  S
In201       O208   2.249       .  S
In201       O209   2.258       .  S
In201       O210   2.201       .  S
In201       O213   2.226       .  S
C202        O208   1.265       .  A
C202        O210   1.257       .  A
C202        C750   1.458       .  S
O203        C211   1.260       .  A
O204        C211   1.260       .  A
C205        O212   1.265       .  A
C205        O206   1.262       .  A
C205        C741   1.474       .  S
C207        O209   1.266       .  A
C207        O213   1.259       .  A
C207        C745   1.474       .  S
In214       O216   2.230       .  S
In214       O217   2.266       .  S
In214       O225   2.243       .  S
In214       O219   2.224       .  S
In214       O221   2.253       .  S
In214       O222   2.256       .  S
In214       O223   2.198       .  S
In214       O226   2.253       .  S
C215        O221   1.261       .  A
C215        O223   1.260       .  A
C215        C749   1.466       .  S
O216        C224   1.258       .  A
O217        C224   1.265       .  A
C218        O225   1.265       .  A
C218        O219   1.260       .  A
C218        C733   1.467       .  S
C220        O222   1.259       .  A
C220        O226   1.259       .  A
C224        C737   1.477       .  S
In227       O229   2.261       .  S
In227       O230   2.257       .  S
In227       O238   2.239       .  S
In227       O232   2.231       .  S
In227       O234   2.263       .  S
In227       O235   2.255       .  S
In227       O236   2.190       .  S
In227       O239   2.236       .  S
C228        O234   1.262   1_565  A
C228        O236   1.259   1_565  A
C228        C729   1.468       .  S
O229        C237   1.260       .  A
O230        C237   1.257       .  A
C231        O238   1.264       .  A
C231        O232   1.260       .  A
C231        C725   1.467       .  S
C233        O235   1.264       .  A
C233        O239   1.259       .  A
C233        C746   1.473       .  S
In240       O242   2.234       .  S
In240       O243   2.250       .  S
In240       O251   2.232       .  S
In240       O245   2.235       .  S
In240       O247   2.256       .  S
In240       O248   2.246       .  S
In240       O249   2.191       .  S
In240       O252   2.245       .  S
C241        O247   1.266       .  A
C241        O249   1.257       .  A
C241        C730   1.457       .  S
O242        C250   1.261       .  A
O243        C250   1.265       .  A
C244        O251   1.262       .  A
C244        O245   1.265       .  A
C244        C717   1.471       .  S
C246        O248   1.262       .  A
C246        O252   1.261       .  A
C250        C721   1.474       .  S
In253       O255   2.257       .  S
In253       O256   2.255       .  S
In253       O264   2.252       .  S
In253       O258   2.231       .  S
In253       O260   2.260       .  S
In253       O261   2.258       .  S
In253       O262   2.195       .  S
In253       O265   2.240       .  S
C254        O260   1.261       .  A
C254        O262   1.259       .  A
C254        C713   1.468       .  S
O255        C263   1.260       .  A
O256        C263   1.257       .  A
C257        O264   1.265       .  A
C257        O258   1.259       .  A
C257        C706   1.473       .  S
C259        O261   1.264       .  A
C259        O265   1.259       .  A
C259        C709   1.476       .  S
In266       O268   2.229       .  S
In266       O269   2.253       .  S
In266       O277   2.239       .  S
In266       O271   2.234       .  S
In266       O273   2.258       .  S
In266       O274   2.245       .  S
In266       O275   2.195       .  S
In266       O278   2.253       .  S
C267        O273   1.265       .  A
C267        O275   1.255       .  A
C267        C714   1.456       .  S
O268        C276   1.261       .  A
O269        C276   1.266       .  A
C270        O277   1.265       .  A
C270        O271   1.262       .  A
C270        C701   1.472       .  S
C272        O274   1.260       .  A
C272        O278   1.259       .  A
C276        C722   1.474       .  S
In279       O281   2.244       .  S
In279       O282   2.255       .  S
In279       O290   2.241       .  S
In279       O284   2.241       .  S
In279       O286   2.267       .  S
In279       O287   2.257       .  S
In279       O288   2.194       .  S
In279       O291   2.258       .  S
C280        O286   1.263       .  A
C280        O288   1.259       .  A
C280        C697   1.471   1_545  S
O281        C289   1.259       .  A
O282        C289   1.264       .  A
C283        O290   1.261       .  A
C283        O284   1.262       .  A
C283        C693   1.472       .  S
C285        O287   1.259       .  A
C285        O291   1.261       .  A
C289        C738   1.475       .  S
In292       O294   2.263       .  S
In292       O295   2.248       .  S
In292       O303   2.239       .  S
In292       O297   2.239       .  S
In292       O299   2.266       .  S
In292       O300   2.255       .  S
In292       O301   2.197       .  S
In292       O304   2.232       .  S
C293        O299   1.265       .  A
C293        O301   1.255       .  A
C293        C698   1.460       .  S
O294        C302   1.260       .  A
O295        C302   1.259       .  A
C296        O303   1.264       .  A
C296        O297   1.263       .  A
C296        C689   1.473       .  S
C298        O300   1.266       .  A
C298        O304   1.261       .  A
C298        C710   1.476       .  S
In305       O307   2.235       .  S
In305       O308   2.257       .  S
In305       O316   2.225       .  S
In305       O310   2.239       .  S
In305       O312   2.254       .  S
In305       O313   2.250       .  S
In305       O314   2.169       .  S
In305       O317   2.246       .  S
C306        O312   1.270       .  A
C306        O314   1.258       .  A
C306        C685   1.452       .  S
O307        C315   1.261       .  A
O308        C315   1.270       .  A
C309        O316   1.264       .  A
C309        O310   1.267       .  A
C309        C814   1.474       .  S
C311        O313   1.266       .  A
C311        O317   1.263       .  A
C311        C414   1.479       .  S
C315        C681   1.479       .  S
In318       O320   2.240       .  S
In318       O321   2.256       .  S
In318       O329   2.236       .  S
In318       O323   2.223       .  S
In318       O325   2.266       .  S
In318       O326   2.256       .  S
In318       O327   2.170       .  S
In318       O330   2.237       .  S
C319        O325   1.265       .  A
C319        O327   1.260       .  A
C319        C686   1.469       .  S
O320        C328   1.261       .  A
O321        C328   1.262       .  A
C322        O329   1.262       .  A
C322        O323   1.264       .  A
C322        C769   1.469       .  S
C324        O326   1.266       .  A
C324        O330   1.258       .  A
C324        C677   1.474       .  S
C328        C435   1.476       .  S
In331       O333   2.255       .  S
In331       O334   2.248       .  S
In331       O342   2.238       .  S
In331       O336   2.227       .  S
In331       O338   2.249       .  S
In331       O339   2.258       .  S
In331       O340   2.200       .  S
In331       O343   2.227       .  S
C332        O338   1.264       .  A
C332        O340   1.256       .  A
C332        C673   1.456       .  S
O333        C341   1.259       .  A
O334        C341   1.261       .  A
C335        O342   1.265       .  A
C335        O336   1.262       .  A
C335        C822   1.469       .  S
C337        O339   1.267       .  A
C337        O343   1.260       .  A
C337        C669   1.476       .  S
C341        C411   1.475       .  S
In344       O346   2.231       .  S
In344       O347   2.266       .  S
In344       O355   2.250       .  S
In344       O349   2.232       .  S
In344       O351   2.255       .  S
In344       O352   2.263       .  S
In344       O353   2.194       .  S
In344       O356   2.263       .  S
C345        O351   1.262       .  A
C345        O353   1.260       .  A
C345        C674   1.465       .  S
O346        C354   1.259       .  A
O347        C354   1.265       .  A
C348        O355   1.265       .  A
C348        O349   1.259       .  A
C348        C774   1.472       .  S
C350        O352   1.258       .  A
C350        O356   1.261       .  A
C350        C438   1.482       .  S
C354        C665   1.478       .  S
In357       O359   2.249       .  S
In357       O360   2.250       .  S
In357       O368   2.233       .  S
In357       O362   2.231       .  S
In357       O364   2.265       .  S
In357       O365   2.247       .  S
In357       O366   2.181       .  S
In357       O369   2.257       .  S
C358        O364   1.264       .  A
C358        O366   1.260       .  A
C358        C662   1.470       .  S
O359        C367   1.260       .  A
O360        C367   1.263       .  A
C361        O368   1.262       .  A
C361        O362   1.263       .  A
C361        C782   1.469       .  S
C363        O365   1.260       .  A
C363        O369   1.260       .  A
C363        C462   1.476       .  S
C367        C666   1.475       .  S
In370       O372   2.249       .  S
In370       O373   2.256       .  S
In370       O381   2.239       .  S
In370       O375   2.242       .  S
In370       O377   2.260       .  S
In370       O378   2.258       .  S
In370       O379   2.184       .  S
In370       O382   2.227       .  S
C371        O377   1.268       .  A
C371        O379   1.257       .  A
C371        C661   1.456   1_655  S
O372        C380   1.262       .  A
O373        C380   1.263       .  A
C374        O381   1.265       .  A
C374        O375   1.264       .  A
C374        C802   1.478       .  S
C376        O378   1.268       .  A
C376        O382   1.258       .  A
C376        C678   1.473       .  S
C380        C483   1.479       .  S
In383       O385   2.230       .  S
In383       O386   2.275       .  S
In383       O394   2.243       .  S
In383       O388   2.227       .  S
In383       O390   2.259       .  S
In383       O391   2.272       .  S
In383       O392   2.174       .  S
In383       O395   2.252       .  S
C384        O390   1.263       .  A
C384        O392   1.259       .  A
C384        C657   1.463   1_655  S
O385        C393   1.257       .  A
O386        C393   1.268       .  A
C387        O394   1.266       .  A
C387        O388   1.261       .  A
C387        C798   1.471       .  S
C389        O391   1.260       .  A
C389        O395   1.260       .  A
C389        C486   1.483       .  S
C393        C682   1.477       .  S
In396       O398   2.248       .  S
In396       O399   2.252       .  S
In396       O407   2.233       .  S
In396       O401   2.225       .  S
In396       O403   2.241       .  S
In396       O404   2.254       .  S
In396       O405   2.183       .  S
In396       O408   2.232       .  S
C397        O403   1.265       .  A
C397        O405   1.257       .  A
C397        C658   1.449       .  S
O398        C406   1.259       .  A
O399        C406   1.262       .  A
C400        O407   1.265       .  A
C400        O401   1.262       .  A
C400        C790   1.469       .  S
C402        O404   1.267       .  A
C402        O408   1.260       .  A
C402        C670   1.475       .  S
C406        C459   1.475       .  S
C409        C410   1.538       .  S
C409        C415   1.531       .  S
C409        C413   1.539   1_455  S
C409        C656   1.480       .  S
C410        H417   1.086       .  S
C410        C411   1.369       .  D
C411        C412   1.541       .  S
C412        C416   1.548       .  S
C412        C414   1.542   1_455  S
C412        H418   1.111       .  S
C413        H419   1.086       .  S
C413        C414   1.370       .  D
C415        H420   1.088       .  S
C415        C416   1.361       .  D
C416        C653   1.458       .  S
C421        C422   1.540   1_455  S
C421        C427   1.530       .  S
C421        C425   1.540       .  S
C421        C655   1.480   1_554  S
C422        H429   1.086       .  S
C422        C423   1.370       .  D
C423        C541   1.475       .  S
C423        C424   1.538   1_655  S
C424        C428   1.543       .  S
C424        C426   1.538       .  S
C424        H430   1.111       .  S
C425        H431   1.086       .  S
C425        C426   1.370       .  D
C426        C563   1.475       .  S
C427        H432   1.088       .  S
C427        C428   1.360       .  D
C428        C652   1.450       .  S
C433        C434   1.530   1_455  S
C433        C439   1.532       .  S
C433        C437   1.534       .  S
C433        C650   1.473       .  S
C434        H441   1.087       .  S
C434        C435   1.367       .  D
C435        C436   1.546   1_655  S
C436        C440   1.549       .  S
C436        C438   1.549       .  S
C436        H442   1.111       .  S
C437        H443   1.086       .  S
C437        C438   1.369       .  D
C439        H444   1.088       .  S
C439        C440   1.362       .  D
C440        C654   1.458       .  S
C445        C446   1.535       .  S
C445        C451   1.530       .  S
C445        C449   1.537   1_455  S
C445        C649   1.473   1_554  S
C446        H453   1.086       .  S
C446        C447   1.368       .  D
C447        C580   1.475       .  S
C447        C448   1.542       .  S
C448        C452   1.541       .  S
C448        C450   1.541   1_455  S
C448        H454   1.111       .  S
C449        H455   1.086       .  S
C449        C450   1.370       .  D
C450        C550   1.474       .  S
C451        H456   1.088       .  S
C451        C452   1.359       .  D
C452        C651   1.450       .  S
C457        C458   1.537       .  S
C457        C463   1.533       .  S
C457        C461   1.537       .  S
C457        C647   1.480       .  S
C458        H465   1.086       .  S
C458        C459   1.369       .  D
C459        C460   1.540       .  S
C460        C464   1.547       .  S
C460        C462   1.541       .  S
C460        H466   1.111       .  S
C461        H467   1.086       .  S
C461        C462   1.370       .  D
C463        H468   1.087       .  S
C463        C464   1.362       .  D
C464        C645   1.459       .  S
C469        C470   1.540       .  S
C469        C475   1.529       .  S
C469        C473   1.539       .  S
C469        C648   1.479       .  S
C470        H477   1.086       .  S
C470        C471   1.371       .  D
C471        C606   1.477       .  S
C471        C472   1.540       .  S
C472        C476   1.547       .  S
C472        C474   1.541       .  S
C472        H478   1.111       .  S
C473        H479   1.086       .  S
C473        C474   1.370       .  D
C474        C511   1.475       .  S
C475        H480   1.088       .  S
C475        C476   1.359       .  D
C476        C644   1.453       .  S
C481        C482   1.534       .  S
C481        C487   1.530       .  S
C481        C485   1.532       .  S
C481        C641   1.473       .  S
C482        H489   1.086       .  S
C482        C483   1.369       .  D
C483        C484   1.549       .  S
C484        C488   1.551       .  S
C484        C486   1.550       .  S
C484        H490   1.111       .  S
C485        H491   1.087       .  S
C485        C486   1.368       .  D
C487        H492   1.088       .  S
C487        C488   1.360       .  D
C488        C646   1.458   1_655  S
C493        C494   1.536       .  S
C493        C499   1.533       .  S
C493        C497   1.533       .  S
C493        C642   1.473       .  S
C494        H501   1.086       .  S
C494        C495   1.369       .  D
C495        C528   1.474       .  S
C495        C496   1.542       .  S
C496        C500   1.543       .  S
C496        C498   1.541       .  S
C496        H502   1.111       .  S
C497        H503   1.086       .  S
C497        C498   1.368       .  D
C498        C589   1.473       .  S
C499        H504   1.087       .  S
C499        C500   1.362       .  D
C500        C643   1.454   1_655  S
In505       O507   2.221       .  S
In505       O508   2.259       .  S
In505       O516   2.230       .  S
In505       O510   2.235       .  S
In505       O512   2.252       .  S
In505       O513   2.244       .  S
In505       O514   2.182       .  S
In505       O517   2.241       .  S
C506        O512   1.270       .  A
C506        O514   1.259       .  A
C506        C638   1.457       .  S
O507        C515   1.259       .  A
O508        C515   1.270       .  A
C509        O516   1.264       .  A
C509        O510   1.267       .  A
C509        C690   1.473       .  S
C511        O513   1.266       .  A
C511        O517   1.263       .  A
C515        C633   1.473       .  S
In518       O520   2.259       .  S
In518       O521   2.245       .  S
In518       O529   2.244       .  S
In518       O523   2.231       .  S
In518       O525   2.260       .  S
In518       O526   2.261       .  S
In518       O527   2.195       .  S
In518       O530   2.239       .  S
C519        O525   1.262       .  A
C519        O527   1.260       .  A
C519        C637   1.469   1_655  S
O520        C528   1.260       .  A
O521        C528   1.259       .  A
C522        O529   1.264       .  A
C522        O523   1.260       .  A
C522        C718   1.470       .  S
C524        O526   1.264       .  A
C524        O530   1.259       .  A
C524        C629   1.477       .  S
In531       O533   2.253       .  S
In531       O534   2.248       .  S
In531       O542   2.234       .  S
In531       O536   2.241       .  S
In531       O538   2.273       .  S
In531       O539   2.252       .  S
In531       O540   2.195       .  S
In531       O543   2.243       .  S
C532        O538   1.267       .  A
C532        O540   1.257       .  A
C532        C625   1.465       .  S
O533        C541   1.260       .  A
O534        C541   1.262       .  A
C535        O542   1.262       .  A
C535        O536   1.266       .  A
C535        C702   1.473       .  S
C537        O539   1.266       .  A
C537        O543   1.262       .  A
C537        C630   1.476       .  S
In544       O546   2.240       .  S
In544       O547   2.255       .  S
In544       O555   2.238       .  S
In544       O549   2.249       .  S
In544       O551   2.276       .  S
In544       O552   2.242       .  S
In544       O553   2.196       .  S
In544       O556   2.258       .  S
C545        O551   1.265       .  A
C545        O553   1.259       .  A
C545        C626   1.477       .  S
O546        C554   1.261       .  A
O547        C554   1.264       .  A
C548        O555   1.260       .  A
C548        O549   1.264       .  A
C548        C742   1.474       .  S
C550        O552   1.260       .  A
C550        O556   1.261       .  A
C554        C621   1.475       .  S
In557       O559   2.227       .  S
In557       O560   2.247       .  S
In557       O568   2.220       .  S
In557       O562   2.231       .  S
In557       O564   2.253       .  S
In557       O565   2.239       .  S
In557       O566   2.176       .  S
In557       O569   2.242       .  S
C558        O564   1.272       .  A
C558        O566   1.260       .  A
C558        C617   1.457       .  S
O559        C567   1.261       .  A
O560        C567   1.271       .  A
C561        O568   1.264       .  A
C561        O562   1.270       .  A
C561        C705   1.473       .  S
C563        O565   1.267       .  A
C563        O569   1.264       .  A
C567        C634   1.475       .  S
In570       O572   2.252       .  S
In570       O573   2.249       .  S
In570       O581   2.237       .  S
In570       O575   2.224       .  S
In570       O577   2.266       .  S
In570       O578   2.252       .  S
In570       O579   2.187       .  S
In570       O582   2.242       .  S
C571        O577   1.263       .  A
C571        O579   1.259       .  A
C571        C618   1.470       .  S
O572        C580   1.260       .  A
O573        C580   1.260       .  A
C574        O581   1.262       .  A
C574        O575   1.263       .  A
C574        C734   1.469       .  S
C576        O578   1.264       .  A
C576        O582   1.260       .  A
C576        C613   1.475       .  S
In583       O585   2.238       .  S
In583       O586   2.256       .  S
In583       O594   2.239       .  S
In583       O588   2.224       .  S
In583       O590   2.261       .  S
In583       O591   2.251       .  S
In583       O592   2.193       .  S
In583       O595   2.246       .  S
C584        O590   1.263       .  A
C584        O592   1.260       .  A
C584        C610   1.469   1_655  S
O585        C593   1.260       .  A
O586        C593   1.264       .  A
C587        O594   1.262       .  A
C587        O588   1.263       .  A
C587        C726   1.469       .  S
C589        O591   1.260       .  A
C589        O595   1.259       .  A
C593        C622   1.475       .  S
In596       O598   2.255       .  S
In596       O599   2.252       .  S
In596       O607   2.233       .  S
In596       O601   2.237       .  S
In596       O603   2.254       .  S
In596       O604   2.258       .  S
In596       O605   2.193       .  S
In596       O608   2.231       .  S
C597        O603   1.267       .  A
C597        O605   1.257       .  A
C597        C609   1.458       .  S
O598        C606   1.260       .  A
O599        C606   1.262       .  A
C600        O607   1.264       .  A
C600        O601   1.263       .  A
C600        C694   1.473       .  S
C602        O604   1.267       .  A
C602        O608   1.261       .  A
C602        C614   1.476       .  S
C609        H611   1.087       .  S
C609        C610   1.339       .  D
C610        H612   1.086       .  S
C613        H615   1.086       .  S
C613        C614   1.348       .  D
C614        H616   1.086       .  S
C617        H619   1.087       .  S
C617        C618   1.338       .  D
C618        H620   1.085       .  S
C621        H623   1.086       .  S
C621        C622   1.347       .  D
C622        H624   1.086       .  S
C625        H627   1.087       .  S
C625        C626   1.342       .  D
C626        H628   1.085       .  S
C629        H631   1.086       .  S
C629        C630   1.348       .  D
C630        H632   1.086       .  S
C633        H635   1.087       .  S
C633        C634   1.337       .  D
C634        H636   1.087       .  S
C637        H639   1.086       .  S
C637        C638   1.337       .  D
C638        H640   1.088       .  S
C641        C642   1.209       .  T
C643        C644   1.213       .  T
C645        C646   1.216       .  T
C647        C648   1.213       .  T
C649        C650   1.209       .  T
C651        C652   1.211       .  T
C653        C654   1.216       .  T
C655        C656   1.213       .  T
C657        H659   1.086       .  S
C657        C658   1.337       .  D
C658        H660   1.087       .  S
C661        H663   1.088       .  S
C661        C662   1.339       .  D
C662        H664   1.086       .  S
C665        H667   1.086       .  S
C665        C666   1.348       .  D
C666        H668   1.086       .  S
C669        H671   1.086       .  S
C669        C670   1.349       .  D
C670        H672   1.086       .  S
C673        H675   1.087       .  S
C673        C674   1.338       .  D
C674        H676   1.086       .  S
C677        H679   1.087       .  S
C677        C678   1.338       .  D
C678        H680   1.087       .  S
C681        H683   1.087       .  S
C681        C682   1.339       .  D
C682        H684   1.087       .  S
C685        H687   1.087       .  S
C685        C686   1.338       .  D
C686        H688   1.085       .  S
C689        H691   1.086       .  S
C689        C690   1.343       .  D
C690        H692   1.087       .  S
C693        H695   1.087       .  S
C693        C694   1.343       .  D
C694        H696   1.086       .  S
C697        H699   1.086       .  S
C697        C698   1.340       .  D
C698        H700   1.087       .  S
C701        H703   1.086       .  S
C701        C702   1.341       .  D
C702        H704   1.087       .  S
C705        H707   1.087       .  S
C705        C706   1.340       .  D
C706        H708   1.087       .  S
C709        H711   1.086       .  S
C709        C710   1.348       .  D
C710        H712   1.085       .  S
C713        H715   1.086       .  S
C713        C714   1.338       .  D
C714        H716   1.087       .  S
C717        H719   1.087       .  S
C717        C718   1.340       .  D
C718        H720   1.087       .  S
C721        H723   1.086       .  S
C721        C722   1.348       .  D
C722        H724   1.086       .  S
C725        H727   1.087       .  S
C725        C726   1.340       .  D
C726        H728   1.087       .  S
C729        H731   1.086       .  S
C729        C730   1.338       .  D
C730        H732   1.088       .  S
C733        H735   1.087       .  S
C733        C734   1.340       .  D
C734        H736   1.086       .  S
C737        H739   1.086       .  S
C737        C738   1.348       .  D
C738        H740   1.086       .  S
C741        H743   1.087       .  S
C741        C742   1.342       .  D
C742        H744   1.087       .  S
C745        H747   1.086       .  S
C745        C746   1.348       .  D
C746        H748   1.086       .  S
C749        H751   1.086       .  S
C749        C750   1.338       .  D
C750        H752   1.087       .  S
C753        C754   1.211       .  T
C755        C756   1.213       .  T
C757        C758   1.212       .  T
C759        C760   1.209       .  T
C761        C762   1.210       .  T
C763        C764   1.215       .  T
C765        C766   1.211       .  T
C767        C768   1.208       .  T
C769        H771   1.087       .  S
C769        C770   1.340       .  D
C770        H772   1.087       .  S
C773        H775   1.087       .  S
C773        C774   1.340       .  D
C774        H776   1.087       .  S
C777        H779   1.088       .  S
C777        C778   1.337       .  D
C778        H780   1.086       .  S
C781        H783   1.087       .  S
C781        C782   1.342       .  D
C782        H784   1.087       .  S
C785        H787   1.086       .  S
C785        C786   1.347       .  D
C786        H788   1.086       .  S
C789        H791   1.087       .  S
C789        C790   1.341       .  D
C790        H792   1.087       .  S
C793        H795   1.086       .  S
C793        C794   1.340       .  D
C794        H796   1.088       .  S
C797        H799   1.087       .  S
C797        C798   1.340       .  D
C798        H800   1.087       .  S
C801        H803   1.087       .  S
C801        C802   1.343       .  D
C802        H804   1.086       .  S
C805        H807   1.085       .  S
C805        C806   1.348       .  D
C806        H808   1.086       .  S
C809        H811   1.085       .  S
C809        C810   1.341       .  D
C810        H812   1.087       .  S
C813        H815   1.086       .  S
C813        C814   1.343       .  D
C814        H816   1.087       .  S
C817        H819   1.086       .  S
C817        C818   1.346       .  D
C818        H820   1.086       .  S
C821        H823   1.087       .  S
C821        C822   1.340       .  D
C822        H824   1.087       .  S
C825        H827   1.086       .  S
C825        C826   1.346       .  D
C826        H828   1.086       .  S
C829        H831   1.088       .  S
C829        C830   1.341       .  D
C830        H832   1.086       .  S
