geometry optimzed in LAMMPS
_audit_creation_date              2020-11-30 
_audit_creation_method            'lammps2cif' 
_symmetry_space_group_name_H-M    'P1' 
_symmetry_Int_Tables_number       1 
_symmetry_cell_setting            triclinic 
loop_ 
_symmetry_equiv_pos_as_xyz 
  x,y,z 
_cell_length_a                    32.1340431 
_cell_length_b                    31.426725756160465 
_cell_length_c                    31.691483871571673 
_cell_angle_alpha                 93.57065767893786 
_cell_angle_beta                  88.38819420234583 
_cell_angle_gamma                 89.23457532896953 
loop_ 
_atom_site_label 
_atom_site_type_symbol 
_atom_site_fract_x 
_atom_site_fract_y 
_atom_site_fract_z 
_atom_site_charge 
C1          C  0.62053285  0.61513404  0.63633738    -0.02700
C2          C  0.91678446  0.11417973  0.63426358    -0.02700
C3          C  0.11019795  0.59221771  0.93181219    -0.02700
C4          C  0.43037767  0.43672285  0.44120556    -0.02700
C5          C  0.60781034  0.92533492  0.12360178    -0.02700
C6          C  0.92755781  0.42627134  0.13658682    -0.02700
C7          C  0.40933797  0.10607616  0.94323785    -0.02700
C8          C  0.11376534  0.92914045  0.43903496    -0.02700
O9          O  0.02652599  0.10714424  0.07134865    -0.81100
O10         O  0.04031811  0.93785685  0.96703669    -0.65800
O11         O  0.99565364  0.04102848  0.02173617    -1.12400
C12         C  0.01597273  0.96268354  0.14315084     1.05800
O13         O  0.99047977  0.90804406  0.00226516    -0.79000
O14         O  0.94596681  0.93150328  0.07274812    -0.66600
Ni15       Ni  0.01877503  0.09480611  0.01215677     1.34900
C16         C  0.92413175  0.96548570  0.07579948     0.84500
O17         O  0.01261211  0.01307259  0.93824846    -0.79500
O18         O  0.01104987  0.08444232  0.95281788    -0.89800
C19         C  0.02091271  0.90445125  0.97602965     0.84100
O20         O  0.07637733  0.08010367  0.00480200    -0.68000
O21         O  0.01682295  0.92938627  0.11779059    -0.87300
C22         C  0.09621959  0.04540630  0.99618013     0.84900
C23         C  0.00761259  0.05142514  0.92757917     1.06500
H24         H  0.05314682  0.97308364  0.05627001     0.38300
O25         O  0.02414189  0.97318207  0.04905904    -1.09900
O26         O  0.94069921  0.00217641  0.07465830    -0.66600
Ni27       Ni  0.99826401  0.02178885  0.07769579     1.26300
O28         O  0.07813038  0.00941368  0.99263339    -0.66800
O29         O  0.00412883  0.99959766  0.13264340    -0.79100
C30         C  0.99519810  0.10876299  0.09668252     0.84300
O31         O  0.97556009  0.07474426  0.10310720    -0.66300
Ni32       Ni  0.00341209  0.91891692  0.06007811     1.27400
Ni33       Ni  0.01984290  0.99150616  0.99287355     1.26100
H34         H  0.96679943  0.04255085  0.01410582     0.38900
O35         O  0.41387082  0.99908769  0.55493338    -0.81100
O36         O  0.58453425  0.07960232  0.56614801    -0.65800
O37         O  0.48245439  0.03858347  0.52247588    -1.12400
C38         C  0.54967632  0.90424109  0.53520712     1.05800
O39         O  0.61628767  0.03892675  0.51576622    -0.79000
O40         O  0.58613618  0.97384886  0.46655706    -0.66600
Ni41       Ni  0.43046054  0.05651554  0.54788442     1.34900
C42         C  0.55254521  0.97391850  0.44643841     0.84500
O43         O  0.51421548  0.11943628  0.54128552    -0.79500
O44         O  0.44437406  0.11479286  0.54105062    -0.89800
C45         C  0.61777897  0.06681947  0.54642566     0.84100
O46         O  0.44471956  0.06055310  0.60603955    -0.68000
O47         O  0.58411117  0.92415482  0.53449781    -0.87300
C48         C  0.47883847  0.06298442  0.62509776     0.84900
C49         C  0.47789976  0.13597453  0.53780601     1.06500
H50         H  0.54618096  0.99498013  0.57772886     0.38300
O51         O  0.54664909  0.00183238  0.54847689    -1.09900
O52         O  0.51692466  0.97800372  0.46527431    -0.66600
Ni53       Ni  0.49751055  0.97969429  0.52435959     1.26300
O54         O  0.51383357  0.06316138  0.60519013    -0.66800
O55         O  0.51419568  0.92140356  0.52936778    -0.79100
C56         C  0.41246473  0.97196464  0.52372744     0.84300
O57         O  0.44557066  0.96099838  0.50299492    -0.66300
Ni58       Ni  0.59899226  0.98192618  0.52510207     1.27400
Ni59       Ni  0.53189706  0.06100691  0.54587299     1.26100
H60         H  0.48191174  0.04579558  0.49321547     0.38900
O61         O  0.54874670  0.48827518  0.93699897    -0.81100
O62         O  0.45407696  0.48965945  0.10277712    -0.65800
O63         O  0.50384327  0.52712887  0.00200790    -1.12400
C64         C  0.62899238  0.50530550  0.07567323     1.05800
O65         O  0.49190292  0.53707138  0.13759707    -0.79000
O66         O  0.55895566  0.58086043  0.11069777    -0.66600
Ni67       Ni  0.49129111  0.50082871  0.94849352     1.34900
C68         C  0.56232827  0.60008330  0.07673953     0.84500
O69         O  0.42241512  0.51588997  0.02992721    -0.79500
O70         O  0.43364197  0.51329542  0.95898178    -0.89800
C71         C  0.46456957  0.50820074  0.13743597     0.84100
O72         O  0.48256130  0.44318696  0.96217723    -0.68000
O73         O  0.60631936  0.50794521  0.10964242    -0.87300
C74         C  0.47595474  0.42579741  0.99672144     0.84900
C75         C  0.40991634  0.51819063  0.99203651     1.06500
H76         H  0.54009943  0.46948014  0.06782138     0.38300
O77         O  0.53375592  0.49964017  0.06837644    -1.09900
O78         O  0.56019211  0.58073779  0.04026423    -0.66600
Ni79       Ni  0.55996513  0.52085936  0.01984063     1.26300
O80         O  0.47561762  0.44680856  0.03241558    -0.66800
O81         O  0.61510687  0.51183287  0.03924986    -0.79100
C82         C  0.57276343  0.51968210  0.93423430     0.84300
O83         O  0.58292327  0.53972121  0.96814298    -0.66300
Ni84       Ni  0.54888349  0.52268437  0.12251201     1.27400
Ni85       Ni  0.47745025  0.50701420  0.05079463     1.26100
H86         H  0.49713446  0.55712798  0.00117888     0.38900
O87         O  0.93230013  0.54827367  0.59149219    -0.81100
O88         O  0.10990837  0.53377948  0.52868552    -0.65800
O89         O  0.99312512  0.55277915  0.53294775    -1.12400
C90         C  0.99112896  0.40149344  0.53778844     1.05800
O91         O  0.10130863  0.48330285  0.47817872    -0.79000
O92         O  0.03022090  0.44453633  0.45554434    -0.66600
Ni93       Ni  0.96714821  0.59210653  0.57323369     1.34900
C94         C  0.99738849  0.46510928  0.44777984     0.84500
O95         O  0.06112761  0.60486909  0.52685264    -0.79500
O96         O  0.00195651  0.63642497  0.55496362    -0.89800
C97         C  0.12475948  0.50869783  0.49890563     0.84100
O98         O  0.00079354  0.58455909  0.62050261    -0.68000
O99         O  0.02980059  0.40203993  0.52754789    -0.87300
C100        C  0.03667261  0.56850993  0.62427451     0.84900
C101        C  0.03776734  0.63765702  0.53646844     1.06500
H102        H  0.04346348  0.47980655  0.56772932     0.38300
O103        O  0.03777775  0.48675619  0.53913981    -1.09900
O104        O  0.97723167  0.48859198  0.47553675    -0.66600
Ni105      Ni  0.97922356  0.49403042  0.53632634     1.26300
O106        O  0.05845841  0.55229457  0.59312977    -0.66800
O107        O  0.96758063  0.43468112  0.53980230    -0.79100
C108        C  0.90719392  0.53296206  0.56481435     0.84300
O109        O  0.92072691  0.50602949  0.53618170    -0.66300
Ni110      Ni  0.06469534  0.44372321  0.50361826     1.27400
Ni111      Ni  0.05142518  0.54519864  0.53282163     1.26100
H112        H  0.98592438  0.56182876  0.50547705     0.38900
C113        C  0.22686320  0.97434373  0.45204230    -0.11600
C114        C  0.24773251  0.93975470  0.46774751     0.15000
C115        C  0.22595083  0.90276220  0.47546791     0.01900
C116        C  0.18372426  0.90110996  0.46774480    -0.15900
C117        C  0.16170499  0.93417059  0.44843209    -0.10700
C118        C  0.18442484  0.97250990  0.44278318     0.08600
C119        C  0.29080469  0.94495744  0.48123031     0.09600
S120        S  0.25014017  0.85650546  0.49623797    -0.25100
H121        H  0.16900305  0.87275292  0.47770934     0.19900
S122        S  0.16061044  0.02098602  0.42660038    -0.30800
H123        H  0.24381145  0.00352434  0.44849397     0.10200
C124        C  0.32434434  0.94571085  0.45183105     0.03400
C125        C  0.36469941  0.95129808  0.46661561    -0.13100
C126        C  0.37178999  0.95622887  0.51020069    -0.08700
C127        C  0.33814442  0.95283112  0.53943923     0.06800
C128        C  0.29801991  0.94800851  0.52463430    -0.13800
S129        S  0.31556583  0.94003794  0.39572762    -0.30700
H130        H  0.39044424  0.95399870  0.44420099     0.11100
S131        S  0.34426560  0.95398956  0.59590469    -0.27800
H132        H  0.27210615  0.94637321  0.54710838     0.08300
H133        H  0.19742296  0.04179200  0.41540408     0.26800
H134        H  0.35761316  0.94148941  0.38237267     0.21600
H135        H  0.38370096  0.93381786  0.59347169     0.26900
H136        H  0.28982716  0.86206041  0.47773758     0.15700
C137        C  0.10286653  0.80565991  0.44486160    -0.11600
C138        C  0.08054712  0.80301870  0.48280916     0.15000
C139        C  0.06662507  0.84041396  0.50563832     0.01900
C140        C  0.07483365  0.87981802  0.48970896    -0.15900
C141        C  0.10005175  0.88401734  0.45272830    -0.10700
C142        C  0.11321465  0.84490162  0.42953976     0.08600
C143        C  0.06985320  0.76055070  0.49619719     0.09600
S144        S  0.03797848  0.84009292  0.55547097    -0.25100
H145        H  0.06041816  0.90675616  0.50709860     0.19900
S146        S  0.14268343  0.84049964  0.37986401    -0.30800
H147        H  0.11257691  0.77649459  0.42696947     0.10200
C148        C  0.02880271  0.74598524  0.49392128     0.03400
C149        C  0.01959878  0.70592192  0.50789416    -0.13100
C150        C  0.05069550  0.67970262  0.52347753    -0.08700
C151        C  0.09211528  0.69410128  0.52489142     0.06800
C152        C  0.10127307  0.73437771  0.51096099    -0.13800
S153        S  0.98847345  0.77757742  0.47157639    -0.30700
H154        H  0.98805079  0.69446477  0.50566439     0.11100
S155        S  0.13417515  0.66353071  0.54509182    -0.27800
H156        H  0.13291717  0.74579381  0.51233385     0.08300
H157        H  0.17296524  0.87053643  0.39030733     0.26800
H158        H  0.95482536  0.75207707  0.48296965     0.21600
H159        H  0.11009705  0.64624745  0.57741127     0.26900
H160        H  0.05667724  0.80273768  0.56884994     0.15700
C161        C  0.06213700  0.98303587  0.25206733    -0.11600
C162        C  0.06935627  0.94111730  0.26281487     0.15000
C163        C  0.05775153  0.90682094  0.23531226     0.01900
C164        C  0.03836414  0.91512634  0.19793988    -0.15900
C165        C  0.03162457  0.95718403  0.18611995    -0.10700
C166        C  0.04407636  0.99156243  0.21388495     0.08600
C167        C  0.08324951  0.93423116  0.30552379     0.09600
S168        S  0.06698319  0.85178012  0.24612535    -0.25100
H169        H  0.02939961  0.88808343  0.17749531     0.19900
S170        S  0.03878871  0.04684942  0.20289531    -0.30800
H171        H  0.07050850  0.00934181  0.27380760     0.10200
C172        C  0.12327956  0.94463031  0.31862628     0.03400
C173        C  0.13310691  0.94100734  0.36097826    -0.13100
C174        C  0.10295986  0.92934333  0.39160874    -0.08700
C175        C  0.06316418  0.91565770  0.37622433     0.06800
C176        C  0.05447112  0.91829206  0.33377962    -0.13800
S177        S  0.16198982  0.96181931  0.28112991    -0.30700
H178        H  0.16459874  0.94749309  0.36941094     0.11100
S179        S  0.01993169  0.89634332  0.40725125    -0.27800
H180        H  0.02386170  0.90958886  0.32284290     0.08300
H181        H  0.06305741  0.04179085  0.16518627     0.26800
H182        H  0.19516483  0.96529673  0.30910414     0.21600
H183        H  0.02217612  0.92582914  0.44186490     0.26900
H184        H  0.10206417  0.85899648  0.27100021     0.15700
C185        C  0.47160770  0.30594155  0.01509607    -0.11600
C186        C  0.44238089  0.29206419  0.98511176     0.15000
C187        C  0.42337744  0.32287430  0.96091231     0.01900
C188        C  0.43556957  0.36559601  0.96522326    -0.15900
C189        C  0.46555784  0.37947254  0.99426866    -0.10700
C190        C  0.48345241  0.34906607  0.01980132     0.08600
C191        C  0.43542059  0.24520820  0.97624940     0.09600
S192        S  0.38350468  0.30966266  0.92352594    -0.25100
H193        H  0.42089563  0.38852883  0.94598577     0.19900
S194        S  0.52344908  0.36266213  0.05677266    -0.30800
H195        H  0.48663748  0.28270743  0.03369229     0.10200
C196        C  0.45013063  0.22411381  0.93838735     0.03400
C197        C  0.44200200  0.18071429  0.92978579    -0.13100
C198        C  0.41741323  0.15576328  0.95699392    -0.08700
C199        C  0.40583030  0.17760032  0.99760395     0.06800
C200        C  0.41423111  0.22139538  0.00566598    -0.13800
S201        S  0.48175852  0.25189887  0.90120386    -0.30700
H202        H  0.45705951  0.16665716  0.90145237     0.11100
S203        S  0.38276822  0.15322931  0.04322727    -0.27800
H204        H  0.40430985  0.23719324  0.03571698     0.08300
H205        H  0.54239671  0.39313690  0.03217334     0.26800
H206        H  0.47542115  0.22346595  0.86596291     0.21600
H207        H  0.38125885  0.11072646  0.02766097     0.26900
H208        H  0.36792445  0.27455957  0.94404126     0.15700
C209        C  0.49496653  0.09473551  0.74284864    -0.11600
C210        C  0.46147247  0.07408737  0.76200625     0.15000
C211        C  0.43643375  0.04728894  0.73623380     0.01900
C212        C  0.44369286  0.04362033  0.69228485    -0.15900
C213        C  0.47642744  0.06509560  0.67259463    -0.10700
C214        C  0.50301770  0.09013355  0.69878517     0.08600
C215        C  0.45076229  0.08370896  0.80798497     0.09600
S216        S  0.39421172  0.01733319  0.75763182    -0.25100
H217        H  0.42325726  0.02374251  0.67316395     0.13500
S218        S  0.54524040  0.12006088  0.67762987    -0.30800
H219        H  0.51437063  0.11547046  0.76225451     0.10200
C220        C  0.47406171  0.06726335  0.84031511     0.03400
C221        C  0.46126954  0.07560554  0.88300855    -0.13100
C222        C  0.42396485  0.09854587  0.89514905    -0.08700
C223        C  0.40286537  0.11815521  0.86180535     0.06800
C224        C  0.41596418  0.10959630  0.81926410    -0.13800
S225        S  0.51995114  0.03483249  0.82718978    -0.30700
H226        H  0.48137810  0.06436110  0.90668841     0.11100
S227        S  0.35947168  0.15504338  0.87223099    -0.27800
H228        H  0.39883355  0.12310015  0.79424811     0.08300
H229        H  0.56624935  0.08351378  0.65955856     0.26800
H230        H  0.52541804  0.02038689  0.86783495     0.21600
H231        H  0.35628532  0.16888846  0.83108036     0.26900
H232        H  0.41355858  0.00982216  0.79577893     0.15700
C233        C  0.29990106  0.04611571  0.94067864    -0.11600
C234        C  0.27391718  0.07433233  0.96542899     0.15000
C235        C  0.28986885  0.11460524  0.97745317     0.01900
C236        C  0.33083077  0.12487232  0.96575424    -0.15900
C237        C  0.36023282  0.09487067  0.94647426    -0.10700
C238        C  0.34066469  0.05737712  0.92763314     0.08600
C239        C  0.22845252  0.06435319  0.97129842     0.09600
S240        S  0.25919685  0.15513637  0.00739543    -0.25100
H241        H  0.33840128  0.15777341  0.97137426     0.19900
S242        S  0.35500659  0.03467001  0.87518990    -0.30800
H243        H  0.28603887  0.01748972  0.92681025     0.10200
C244        C  0.19746306  0.08616598  0.94990404     0.03400
C245        C  0.15508326  0.07855611  0.95852096    -0.13100
C246        C  0.14213842  0.04887885  0.98749830    -0.08700
C247        C  0.17315967  0.02588735  0.00784146     0.06800
C248        C  0.21575659  0.03355698  0.99926884    -0.13800
S249        S  0.21174940  0.12337065  0.91087218    -0.30700
H250        H  0.13160017  0.09591400  0.94242012     0.11100
S251        S  0.16052225  0.98822058  0.04664782    -0.27800
H252        H  0.23918866  0.01642250  0.01568220     0.08300
H253        H  0.33636903  0.99482418  0.87947667     0.26800
H254        H  0.17108207  0.13569335  0.90106442     0.21600
H255        H  0.12448796  0.00989009  0.06306749     0.26900
H256        H  0.23499843  0.12666797  0.02982623     0.15700
C257        C  0.96742569  0.41739726  0.34059376    -0.11600
C258        C  0.96381659  0.45394630  0.31772422     0.15000
C259        C  0.96785334  0.49457684  0.33876875     0.01900
C260        C  0.97661092  0.49766775  0.38194302    -0.15900
C261        C  0.98212987  0.46092907  0.40430472    -0.10700
C262        C  0.97613445  0.42045199  0.38358525     0.08600
C263        C  0.95446719  0.44831204  0.27232202     0.09600
S264        S  0.96338284  0.54335749  0.31201748    -0.25100
H265        H  0.98093493  0.52882414  0.39772169     0.19900
S266        S  0.97799114  0.37163166  0.41057957    -0.30800
H267        H  0.96312576  0.38622976  0.32480116     0.10200
C268        C  0.98386640  0.43042742  0.24273684     0.03400
C269        C  0.97299267  0.42371511  0.20049593    -0.13100
C270        C  0.93355389  0.43565128  0.18537824    -0.08700
C271        C  0.90275456  0.44996675  0.21734828     0.06800
C272        C  0.91446534  0.45774171  0.25939347    -0.13800
S273        S  0.03608319  0.41779436  0.25829960    -0.30700
H274        H  0.99636648  0.41017683  0.17855868     0.11100
S275        S  0.84726245  0.45530224  0.21140150    -0.27800
H276        H  0.89136338  0.46934924  0.28311051     0.08300
H277        H  0.96208489  0.38967958  0.44954652     0.26800
H278        H  0.05132210  0.40140849  0.21842592     0.21600
H279        H  0.84174796  0.41387416  0.19373771     0.26900
H280        H  0.97968069  0.52666183  0.27271263     0.15700
C281        C  0.82487619  0.48607653  0.10898498    -0.11600
C282        C  0.79996988  0.45268863  0.09454535     0.15000
C283        C  0.81682428  0.41119369  0.08995145     0.01900
C284        C  0.85742538  0.40364694  0.10264497    -0.15900
C285        C  0.88212160  0.43626597  0.12200391    -0.10700
C286        C  0.86544892  0.47894548  0.12203346     0.08600
C287        C  0.75578041  0.46261359  0.08767451     0.09600
S288        S  0.78811752  0.36630469  0.06837805    -0.25100
H289        H  0.86926013  0.37165222  0.09594735     0.19900
S290        S  0.89242009  0.52560311  0.14196447    -0.30800
H291        H  0.81153954  0.51801556  0.11194327     0.10200
C292        C  0.72481744  0.45326217  0.11779215     0.03400
C293        C  0.68398923  0.46784929  0.11302041    -0.13100
C294        C  0.67332183  0.49227101  0.07901911    -0.08700
C295        C  0.70487672  0.50170366  0.04890931     0.06800
C296        C  0.74551007  0.48650226  0.05349796    -0.13800
S297        S  0.73758925  0.42403958  0.16318350    -0.30700
H298        H  0.66019301  0.45993201  0.13595510     0.11100
S299        S  0.69642336  0.53436670  0.00503746    -0.27800
H300        H  0.76973198  0.49450977  0.03097045     0.08300
H301        H  0.87010921  0.55560664  0.11997279     0.26800
H302        H  0.69835081  0.42822648  0.18394176     0.21600
H303        H  0.67185888  0.56517680  0.02862427     0.26900
H304        H  0.76060428  0.38975882  0.04475238     0.15700
C305        C  0.99680566  0.22424785  0.13711501    -0.11600
C306        C  0.95784698  0.23872371  0.12444462     0.15000
C307        C  0.92929760  0.20847765  0.10786214     0.01900
C308        C  0.94043661  0.16497915  0.10450004    -0.15900
C309        C  0.98048293  0.15109475  0.11452289    -0.10700
C310        C  0.00857146  0.18117327  0.13187316     0.08600
C311        C  0.94967488  0.28566566  0.12673048     0.09600
S312        S  0.88004035  0.22323358  0.08645762    -0.25100
H313        H  0.91913432  0.14235734  0.08999238     0.19900
S314        S  0.06067628  0.16697356  0.14614137    -0.30800
H315        H  0.01889192  0.24704029  0.14992400     0.10200
C316        C  0.91840998  0.30526462  0.15324161     0.03400
C317        C  0.91319888  0.34968420  0.15468506    -0.13100
C318        C  0.93828085  0.37671453  0.13042421    -0.08700
C319        C  0.97265486  0.35608710  0.10670114     0.06800
C320        C  0.97632854  0.31140246  0.10408800    -0.13800
S321        S  0.88610975  0.27412953  0.18690228    -0.30700
H322        H  0.88884555  0.36377814  0.17520460     0.11100
S323        S  0.01639555  0.38135301  0.08178682    -0.27800
H324        H  0.00174923  0.29626341  0.08526530     0.08300
H325        H  0.05234906  0.12412191  0.15276116     0.26800
H326        H  0.86118775  0.30800371  0.20499786     0.21600
H327        H  0.02569617  0.40954416  0.11601596     0.26900
H328        H  0.89153975  0.26403361  0.07505623     0.15700
C329        C  0.55166342  0.02264385  0.07526580    -0.11600
C330        C  0.51441773  0.00538315  0.06010034     0.15000
C331        C  0.50589140  0.96291469  0.06995962     0.01900
C332        C  0.53671019  0.93779658  0.08771952    -0.15900
C333        C  0.57536519  0.95447444  0.10130967    -0.10700
C334        C  0.57884077  0.99969752  0.09999547     0.08600
C335        C  0.48680042  0.03085659  0.03223631     0.09600
S336        S  0.45526245  0.93947725  0.06394762    -0.25100
H337        H  0.52871731  0.90528240  0.09319027     0.19900
S338        S  0.61884983  0.02953008  0.12683684    -0.30800
H339        H  0.56025319  0.05436763  0.06752144     0.10200
C340        C  0.48073362  0.07539695  0.03753313     0.03400
C341        C  0.46121266  0.09740887  0.00593712    -0.13100
C342        C  0.43693399  0.07733429  0.97336340    -0.08700
C343        C  0.44200592  0.03148855  0.97002122     0.06800
C344        C  0.46861625  0.01036023  0.99703172    -0.13800
S345        S  0.49487799  0.10529831  0.08557910    -0.30700
H346        H  0.46560969  0.13114088  0.00839910     0.11100
S347        S  0.42220138  0.99690312  0.92853872    -0.27800
H348        H  0.47580397  0.97689450  0.99003893     0.08300
H349        H  0.60286703  0.07056429  0.12093316     0.26800
H350        H  0.47587983  0.14432278  0.07706199     0.21600
H351        H  0.42068963  0.95964415  0.95099435     0.26900
H352        H  0.43293424  0.97830667  0.07007178     0.15700
C353        C  0.53717421  0.98262308  0.32681838    -0.11600
C354        C  0.56857959  0.95466419  0.30912999     0.15000
C355        C  0.59328918  0.93247477  0.33711407     0.01900
C356        C  0.58719027  0.93957777  0.38110284    -0.15900
C357        C  0.55613487  0.96777158  0.39899081    -0.10700
C358        C  0.53078310  0.98941353  0.37104667     0.08600
C359        C  0.57720560  0.95119165  0.26196940     0.09600
S360        S  0.63308033  0.89413863  0.31871086    -0.25100
H361        H  0.60676489  0.92229589  0.40169595     0.19900
S362        S  0.49173632  0.02823286  0.38975026    -0.30800
H363        H  0.51835454  0.00044650  0.30600965     0.10200
C364        C  0.54805222  0.93544023  0.23289718     0.03400
C365        C  0.55907884  0.93040144  0.18947135    -0.13100
C366        C  0.59964804  0.93866054  0.17275606    -0.08700
C367        C  0.62803877  0.95756987  0.20281005     0.06800
C368        C  0.61620267  0.96304319  0.24614415    -0.13800
S369        S  0.49728363  0.91915528  0.25114662    -0.30700
H370        H  0.53614300  0.91714273  0.16840721     0.11100
S371        S  0.67799684  0.97991988  0.18967338    -0.27800
H372        H  0.63775319  0.97723557  0.26841482     0.08300
H373        H  0.51647603  0.04693643  0.42159225     0.26800
H374        H  0.48420503  0.90067294  0.21226420     0.21600
H375        H  0.69677592  0.97321570  0.22834805     0.26900
H376        H  0.61290552  0.87983128  0.28176081     0.15700
C377        C  0.58841880  0.81070432  0.06800276    -0.11600
C378        C  0.58395642  0.78479188  0.10218710     0.15000
C379        C  0.58792114  0.80423333  0.14324138     0.01900
C380        C  0.59612937  0.84805586  0.14893719    -0.15900
C381        C  0.59845933  0.87563930  0.11496119    -0.10700
C382        C  0.59544887  0.85496944  0.07350883     0.08600
C383        C  0.57844626  0.73736632  0.09383028     0.09600
S384        S  0.58286284  0.77500102  0.19030049    -0.25100
H385        H  0.60157576  0.85992565  0.18096961     0.19900
S386        S  0.60108660  0.88294391  0.02592701    -0.30800
H387        H  0.58733562  0.79577175  0.03632833     0.10200
C388        C  0.54478128  0.72004253  0.07075127     0.03400
C389        C  0.54112872  0.67532361  0.06398151    -0.13100
C390        C  0.56986147  0.64706262  0.08042235    -0.08700
C391        C  0.60390940  0.66448230  0.10277285     0.06800
C392        C  0.60793247  0.70893618  0.10883179    -0.13800
S393        S  0.50489766  0.75460984  0.05198231    -0.30700
H394        H  0.51486766  0.66221114  0.04720447     0.11100
S395        S  0.64368849  0.63178458  0.12427870    -0.27800
H396        H  0.63444101  0.72154450  0.12562559     0.08300
H397        H  0.57799537  0.85459863  0.99998131     0.26800
H398        H  0.48159330  0.72250191  0.03118032     0.21600
H399        H  0.64113972  0.59757585  0.09387754     0.26900
H400        H  0.55358283  0.74591513  0.17406627     0.15700
C401        C  0.80712163  0.98270934  0.10538122    -0.11600
C402        C  0.79014544  0.94411479  0.08926601     0.15000
C403        C  0.81730082  0.91380812  0.06769190     0.01900
C404        C  0.86009711  0.92211735  0.06378659    -0.15900
C405        C  0.87754581  0.96045569  0.08030056    -0.10700
C406        C  0.85015852  0.99098638  0.10162908     0.08600
C407        C  0.74418971  0.93672178  0.09517503     0.09600
S408        S  0.79960033  0.86365432  0.04431915    -0.25100
H409        H  0.88002769  0.89816098  0.04713408     0.19900
S410        S  0.86818962  0.04009151  0.12666101    -0.30800
H411        H  0.78673896  0.00624485  0.12206077     0.10200
C412        C  0.72808313  0.90760954  0.12317215     0.03400
C413        C  0.68457998  0.90370230  0.12886681    -0.13100
C414        C  0.65522735  0.92897809  0.10822325    -0.08700
C415        C  0.67256110  0.95352369  0.07502131     0.06800
C416        C  0.71618059  0.95834964  0.07088519    -0.13800
S417        S  0.76285844  0.87722487  0.15393777    -0.30700
H418        H  0.67335821  0.88295310  0.15247063     0.11100
S419        S  0.64307593  0.97508131  0.03314137    -0.27800
H420        H  0.72910011  0.97805165  0.04709373     0.08300
H421        H  0.90251730  0.02099176  0.14510049     0.26800
H422        H  0.73220625  0.85306201  0.17357966     0.21600
H423        H  0.67326509  0.00275452  0.01795062     0.26900
H424        H  0.75884030  0.87718839  0.03658451     0.15700
C425        C  0.45520935  0.31282091  0.44409347    -0.11600
C426        C  0.44968939  0.30792500  0.48733689     0.15000
C427        C  0.43781320  0.34334402  0.51427154     0.01900
C428        C  0.43076029  0.38251283  0.49722877    -0.15900
C429        C  0.43646758  0.38904281  0.45337703    -0.10700
C430        C  0.44985482  0.35240520  0.42646345     0.08600
C431        C  0.45710359  0.26522920  0.50309966     0.09600
S432        S  0.43177757  0.34103225  0.57089054    -0.25100
H433        H  0.42108727  0.40902392  0.51895785     0.19900
S434        S  0.46700696  0.35340297  0.37154744    -0.30800
H435        H  0.46545425  0.28518977  0.42419324     0.10200
C436        C  0.42412077  0.24076093  0.51789201     0.03400
C437        C  0.43248596  0.19991891  0.53113337    -0.13100
C438        C  0.47299906  0.18168837  0.52809055    -0.08700
C439        C  0.50593970  0.20658442  0.51250301     0.06800
C440        C  0.49765423  0.24809663  0.50098444    -0.13800
S441        S  0.37099835  0.26048478  0.51745433    -0.30700
H442        H  0.40675996  0.18162247  0.54268667     0.11100
S443        S  0.55866362  0.18710637  0.50391458    -0.27800
H444        H  0.52289199  0.26683318  0.48886868     0.08300
H445        H  0.46535708  0.30940154  0.36060045     0.26800
H446        H  0.35191544  0.22440438  0.53306324     0.21600
H447        H  0.54697557  0.15186127  0.47749126     0.26900
H448        H  0.46179393  0.30872912  0.57501709     0.15700
C449        C  0.22754544  0.48856778  0.43973931    -0.11600
C450        C  0.25484924  0.48939735  0.47336949     0.15000
C451        C  0.24009783  0.50190662  0.51468063     0.01900
C452        C  0.19764250  0.51074830  0.52184801    -0.15900
C453        C  0.16974629  0.50772045  0.48850767    -0.10700
C454        C  0.18531602  0.49820201  0.44673035     0.08600
C455        C  0.29819235  0.47543555  0.46448032     0.09600
S456        S  0.27329835  0.50484054  0.55978010    -0.25100
H457        H  0.18606881  0.51811813  0.55396142     0.19900
S458        S  0.15311665  0.49810304  0.40101171    -0.30800
H459        H  0.23918309  0.47981159  0.40789496     0.10200
C460        C  0.31134557  0.43382585  0.47098466     0.03400
C461        C  0.35298759  0.42207833  0.46278655    -0.13100
C462        C  0.38340979  0.45154741  0.45001091    -0.08700
C463        C  0.36801057  0.49298994  0.44038598     0.06800
C464        C  0.32609988  0.50413710  0.44833364    -0.13800
S465        S  0.27466047  0.39515954  0.48880932    -0.30700
H466        H  0.36056887  0.38893511  0.46526944     0.11100
S467        S  0.40041116  0.53385354  0.41947355    -0.27800
H468        H  0.31493627  0.53590317  0.44268358     0.08300
H469        H  0.12620473  0.53105386  0.41765353     0.26800
H470        H  0.30319026  0.36117886  0.49166399     0.21600
H471        H  0.36830694  0.55759526  0.40225982     0.26900
H472        H  0.31079833  0.51219892  0.53775316     0.15700
C473        C  0.46516883  0.47709461  0.33053549    -0.11600
C474        C  0.43319312  0.46060214  0.30581672     0.15000
C475        C  0.40413534  0.43355845  0.32361400     0.01900
C476        C  0.40686865  0.42499520  0.36607847    -0.15900
C477        C  0.43744296  0.44341801  0.39299718    -0.10700
C478        C  0.46726070  0.47068083  0.37374389     0.08600
C479        C  0.43203156  0.47245703  0.26145738     0.09600
S480        S  0.36215667  0.40967182  0.29436805    -0.25100
H481        H  0.38388448  0.40398935  0.37882016     0.19900
S482        S  0.50415288  0.50465378  0.40122523    -0.30800
H483        H  0.48739806  0.49776199  0.31604028     0.10200
C484        C  0.42966509  0.51562585  0.25169496     0.03400
C485        C  0.43796296  0.52637057  0.21013892    -0.13100
C486        C  0.44766777  0.49479514  0.17804306    -0.08700
C487        C  0.44641889  0.45135761  0.18730211     0.06800
C488        C  0.43866539  0.44070033  0.22889093    -0.13800
S489        S  0.41734066  0.55717153  0.29236472    -0.30700
H490        H  0.43842995  0.55957410  0.20283931     0.11100
S491        S  0.45877139  0.40824708  0.14866310    -0.27800
H492        H  0.44052592  0.40755396  0.23636949     0.08300
H493        H  0.53297176  0.50752960  0.36729473     0.26800
H494        H  0.41575600  0.59112722  0.26552723     0.21600
H495        H  0.49517234  0.42710556  0.13328690     0.26900
H496        H  0.35645690  0.44337750  0.26785717     0.15700
C497        C  0.06619078  0.51791335  0.01853527    -0.11600
C498        C  0.02353220  0.52355632  0.01426459     0.15000
C499        C  0.00939016  0.55229076  0.98528746     0.01900
C500        C  0.03844151  0.57276942  0.95988975    -0.15900
C501        C  0.08226871  0.56743430  0.96342395    -0.10700
C502        C  0.09557682  0.54082654  0.99642904     0.08600
C503        C  0.99613205  0.50172396  0.04441393     0.09600
S504        S  0.95500348  0.56471160  0.97924020    -0.25100
H505        H  0.02648855  0.59312079  0.93653331     0.19900
S506        S  0.14681354  0.53393629  0.01792964    -0.30800
H507        H  0.07675207  0.49671842  0.04194659     0.10200
C508        C  0.97035478  0.46792070  0.03188022     0.03400
C509        C  0.94944145  0.44553152  0.06282726    -0.13100
C510        C  0.95514032  0.45369543  0.10706505    -0.08700
C511        C  0.98243577  0.48835487  0.11889623     0.06800
C512        C  0.00141893  0.51142703  0.08748556    -0.13800
S513        S  0.96610045  0.45126402  0.97662227    -0.30700
H514        H  0.92942867  0.41979781  0.05234219     0.11100
S515        S  0.99769773  0.50738027  0.17120351    -0.27800
H516        H  0.02205200  0.53720380  0.09675610     0.08300
H517        H  0.15994666  0.57601048  0.01871175     0.26800
H518        H  0.94491844  0.41312714  0.98265840     0.21600
H519        H  0.95802135  0.51417105  0.18972491     0.26900
H520        H  0.94181578  0.55632887  0.02050676     0.15700
C521        C  0.29145153  0.52407167  0.99823085    -0.11600
C522        C  0.28383235  0.54820390  0.96335512     0.15000
C523        C  0.31745058  0.56270585  0.93901673     0.01900
C524        C  0.35787041  0.55319674  0.95018244    -0.15900
C525        C  0.36594280  0.52841480  0.98455635    -0.10700
C526        C  0.33217213  0.51350496  0.00880610     0.08600
C527        C  0.24071571  0.55975867  0.95406240     0.09600
S528        S  0.31097528  0.59346223  0.89331007    -0.25100
H529        H  0.38340258  0.56508662  0.93140642     0.19900
S530        S  0.33869523  0.47989116  0.05228129    -0.30800
H531        H  0.26546907  0.51306111  0.01697396     0.10200
C532        C  0.21333705  0.52969842  0.93659443     0.03400
C533        C  0.17260675  0.54243904  0.92879630    -0.13100
C534        C  0.15772370  0.58493423  0.93819253    -0.08700
C535        C  0.18843548  0.61609309  0.94972677     0.06800
C536        C  0.22824098  0.60242607  0.95993491    -0.13800
S537        S  0.22989199  0.47493316  0.92497782    -0.30700
H538        H  0.15121397  0.51826498  0.91768403     0.11100
S539        S  0.18380045  0.67334488  0.94906082    -0.27800
H540        H  0.25076717  0.62575603  0.97079222     0.08300
H541        H  0.37090215  0.45468094  0.03224331     0.26800
H542        H  0.19234374  0.46026772  0.90797639     0.21600
H543        H  0.16517542  0.67393394  0.90971588     0.26900
H544        H  0.27342603  0.57490846  0.88055355     0.15700
C545        C  0.07230414  0.53840387  0.82389788    -0.11600
C546        C  0.09249595  0.56426498  0.79555473     0.15000
C547        C  0.12344541  0.59194137  0.81055017     0.01900
C548        C  0.12962885  0.59711147  0.85381599    -0.15900
C549        C  0.10534240  0.57591075  0.88398464    -0.10700
C550        C  0.08005288  0.54187337  0.86748787     0.08600
C551        C  0.07892557  0.56422973  0.75125684     0.09600
S552        S  0.15515915  0.62293390  0.77630810    -0.25100
H553        H  0.15231119  0.62013048  0.86423977     0.19900
S554        S  0.06294538  0.49797358  0.89763522    -0.30800
H555        H  0.05071719  0.51493650  0.81152688     0.10200
C556        C  0.08367537  0.52818481  0.72261866     0.03400
C557        C  0.07080558  0.53068646  0.68081462    -0.13100
C558        C  0.05335694  0.56850570  0.66719035    -0.08700
C559        C  0.04965841  0.60479588  0.69580292     0.06800
C560        C  0.06172678  0.60201215  0.73750581    -0.13800
S561        S  0.10688743  0.47942636  0.73893551    -0.30700
H562        H  0.07356363  0.50292223  0.65885360     0.11100
S563        S  0.03142287  0.65606888  0.68070002    -0.27800
H564        H  0.05846136  0.62988711  0.75935628     0.08300
H565        H  0.03198979  0.48308154  0.87012159     0.26800
H566        H  0.10365171  0.45572469  0.70006021     0.21600
H567        H  0.04892463  0.65186868  0.63942528     0.26900
H568        H  0.15355728  0.59443812  0.74039968     0.15700
C569        C  0.08800755  0.80498008  0.95087967    -0.11600
C570        C  0.05721029  0.77372254  0.94873036     0.15000
C571        C  0.01484988  0.78624186  0.95161906     0.01900
C572        C  0.00430557  0.82951594  0.95684321    -0.15900
C573        C  0.03490242  0.86094875  0.96093751    -0.10700
C574        C  0.07737780  0.84835516  0.95754123     0.08600
C575        C  0.07001092  0.72829705  0.94428459     0.09600
S576        S  0.97252940  0.74887820  0.95032143    -0.25100
H577        H  0.97164745  0.83863161  0.95981014     0.19900
S578        S  0.11927805  0.88537160  0.96491338    -0.30800
H579        H  0.12055805  0.79535381  0.94888143     0.10200
C580        C  0.06560288  0.70404752  0.90624917     0.03400
C581        C  0.07594912  0.66065532  0.90404770    -0.13100
C582        C  0.09464650  0.64032837  0.93796316    -0.08700
C583        C  0.09447688  0.66483802  0.97767834     0.06800
C584        C  0.08347090  0.70842771  0.97976554    -0.13800
S585        S  0.04589318  0.72810180  0.86030618    -0.30700
H586        H  0.06784177  0.64306664  0.87532695     0.11100
S587        S  0.10942378  0.64284685  0.02628331    -0.27800
H588        H  0.08506106  0.72738173  0.00938214     0.08300
H589        H  0.10231572  0.90439611  0.00307778     0.26800
H590        H  0.05842691  0.69494622  0.83057345     0.21600
H591        H  0.09627641  0.67724446  0.05419981     0.26900
H592        H  0.99430937  0.71349757  0.96401591     0.15700
C593        C  0.03688462  0.02229610  0.48003758    -0.11600
C594        C  0.04335138  0.02257274  0.52321357     0.15000
C595        C  0.07670306  0.99886395  0.53787485     0.01900
C596        C  0.10000847  0.97190425  0.50922609    -0.15900
C597        C  0.09072807  0.96690695  0.46559203    -0.10700
C598        C  0.06118169  0.99735929  0.45077870     0.08600
C599        C  0.01269992  0.04600647  0.55163130     0.09600
S600        S  0.09000772  0.00033931  0.59286440    -0.25100
H601        H  0.12389246  0.95211271  0.52189819     0.19900
S602        S  0.04980599  0.00922577  0.39708985    -0.30800
H603        H  0.01206879  0.04211169  0.46891615     0.10200
C604        C  0.00611813  0.08985642  0.54957528     0.03400
C605        C  0.97410420  0.11007858  0.57407624    -0.13100
C606        C  0.94782522  0.08820997  0.60237535    -0.08700
C607        C  0.95583215  0.04311517  0.60398199     0.06800
C608        C  0.98748726  0.02321024  0.57839920    -0.13800
S609        S  0.04090794  0.12115135  0.51840671    -0.30700
H610        H  0.97353001  0.14415856  0.57350405     0.11100
S611        S  0.93114338  0.00770480  0.63970182    -0.27800
H612        H  0.99280257  0.98914840  0.57949065     0.08300
H613        H  0.09079306  0.01489892  0.38311603     0.26800
H614        H  0.01712120  0.15920007  0.52146832     0.21600
H615        H  0.89110774  0.02519442  0.64212575     0.26900
H616        H  0.07430505  0.04173064  0.60348467     0.15700
C617        C  0.97515481  0.28365782  0.55285040    -0.11600
C618        C  0.93895890  0.28541010  0.57842255     0.15000
C619        C  0.91798909  0.32454540  0.58780777     0.01900
C620        C  0.93532031  0.36174318  0.57353083    -0.15900
C621        C  0.97272405  0.36057641  0.54910374    -0.10700
C622        C  0.99191396  0.32050594  0.53723711     0.08600
C623        C  0.92567487  0.24558752  0.59607590     0.09600
S624        S  0.86957046  0.32919880  0.61814347    -0.25100
H625        H  0.91962892  0.39188922  0.58218106     0.19900
S626        S  0.03678270  0.31485696  0.50135210    -0.30800
H627        H  0.99042100  0.25304793  0.54544749     0.10200
C628        C  0.90759799  0.21358954  0.57053290     0.03400
C629        C  0.90307165  0.17336417  0.58580288    -0.13100
C630        C  0.91760437  0.16297675  0.62602231    -0.08700
C631        C  0.93078219  0.19790652  0.65376285     0.06800
C632        C  0.93571090  0.23815389  0.63753524    -0.13800
S633        S  0.89250997  0.22333713  0.51740866    -0.30700
H634        H  0.89138947  0.14849210  0.56441155     0.11100
S635        S  0.93896683  0.19537637  0.70997591    -0.27800
H636        H  0.94832138  0.26421433  0.65689958     0.08300
H637        H  0.03938467  0.27004614  0.49854511     0.26800
H638        H  0.87596456  0.18287890  0.50729687     0.21600
H639        H  0.95010126  0.23797108  0.71929011     0.26900
H640        H  0.85653911  0.28706276  0.60992339     0.15700
C641        C  0.79497544  0.11916893  0.63543985    -0.11600
C642        C  0.78537337  0.09062555  0.60174674     0.15000
C643        C  0.81807446  0.06755347  0.57987597     0.01900
C644        C  0.85931069  0.07471792  0.59115012    -0.15900
C645        C  0.86985826  0.10254869  0.62616229    -0.10700
C646        C  0.83588687  0.12484489  0.64859075     0.08600
C647        C  0.74124420  0.08783701  0.58875783     0.09600
S648        S  0.80950205  0.02850770  0.53691410    -0.25100
H649        H  0.88303068  0.05815953  0.57148085     0.19900
S650        S  0.84300233  0.16258519  0.69317868    -0.30800
H651        H  0.76990542  0.13790359  0.65112358     0.10200
C652        C  0.70878207  0.07807162  0.61751887     0.03400
C653        C  0.66785079  0.07519661  0.60349491    -0.13100
C654        C  0.65869991  0.08078962  0.56119890    -0.08700
C655        C  0.69068811  0.09244525  0.53298326     0.06800
C656        C  0.73141652  0.09624475  0.54711460    -0.13800
S657        S  0.71947477  0.06576117  0.67118083    -0.30700
H658        H  0.64326551  0.06566652  0.62483900     0.11100
S659        S  0.68142132  0.10278266  0.47866284    -0.27800
H660        H  0.75580485  0.10531528  0.52528165     0.08300
H661        H  0.80089388  0.17051686  0.70461987     0.26800
H662        H  0.67784050  0.06194995  0.68520171     0.21600
H663        H  0.63962039  0.11595728  0.48539625     0.26900
H664        H  0.77086748  0.01497060  0.55269158     0.15700
C665        C  0.98704482  0.09267145  0.72953123    -0.11600
C666        C  0.95871492  0.07533374  0.75745439     0.15000
C667        C  0.91711786  0.07042400  0.74615823     0.01900
C668        C  0.90430254  0.08391193  0.70751524    -0.15900
C669        C  0.93183110  0.10304732  0.67878259    -0.10700
C670        C  0.97470115  0.10630946  0.69051692     0.08600
C671        C  0.97206985  0.06824519  0.80044451     0.09600
S672        S  0.87868912  0.04699585  0.77987762    -0.25100
H673        H  0.87244793  0.07748927  0.69996465     0.19900
S674        S  0.01436063  0.13134417  0.65919024    -0.30800
H675        H  0.01877923  0.09724155  0.73935661     0.10200
C676        C  0.99862375  0.03413798  0.80912434     0.03400
C677        C  0.01024610  0.02942303  0.85088630    -0.13100
C678        C  0.99581806  0.05833099  0.88387409    -0.08700
C679        C  0.96871558  0.09237459  0.87478011     0.06800
C680        C  0.95761183  0.09700244  0.83308861    -0.13800
S681        S  0.01653213  0.99609943  0.76727332    -0.30700
H682        H  0.03058929  0.00320448  0.85790181     0.11100
S683        S  0.94588754  0.12900085  0.91573321    -0.27800
H684        H  0.93713996  0.12297495  0.82563691     0.08300
H685        H  0.04920542  0.11414785  0.67841113     0.26800
H686        H  0.04047365  0.97056182  0.79260705     0.21600
H687        H  0.91991640  0.15179284  0.88985326     0.26900
H688        H  0.90656214  0.01975535  0.79900282     0.15700
C689        C  0.52777326  0.47027521  0.50575941    -0.11600
C690        C  0.51322425  0.50649472  0.52986202     0.15000
C691        C  0.47223127  0.52102844  0.52445793     0.01900
C692        C  0.44583686  0.49663957  0.49895705    -0.15900
C693        C  0.46064266  0.46229019  0.47111396    -0.10700
C694        C  0.50333218  0.44950319  0.47523590     0.08600
C695        C  0.54226395  0.52905070  0.55883612     0.09600
S696        S  0.45184610  0.57165441  0.54684819    -0.25100
H697        H  0.41371147  0.50651877  0.50090363     0.19900
S698        S  0.52924309  0.40881596  0.44067839    -0.30800
H699        H  0.55920135  0.45880665  0.51003900     0.10200
C700        C  0.53173768  0.54026992  0.60133917     0.03400
C701        C  0.55768509  0.56763515  0.62444695    -0.13100
C702        C  0.59837355  0.57819740  0.60958882    -0.08700
C703        C  0.61181676  0.55728601  0.56968398     0.06800
C704        C  0.58235904  0.53757732  0.54376545    -0.13800
S705        S  0.48635017  0.51882734  0.62701571    -0.30700
H706        H  0.54540829  0.58125802  0.65444478     0.11100
S707        S  0.66419285  0.54607030  0.54945004    -0.27800
H708        H  0.59176692  0.52617909  0.51187674     0.08300
H709        H  0.57039881  0.42116579  0.44838681     0.26800
H710        H  0.49591602  0.53309561  0.66854464     0.21600
H711        H  0.68386151  0.54475237  0.58795634     0.26900
H712        H  0.49021090  0.59254094  0.54742822     0.15700
C713        C  0.58502839  0.78977768  0.54261143    -0.11600
C714        C  0.56160831  0.77871614  0.57817455     0.15000
C715        C  0.53122113  0.80738696  0.59654281     0.01900
C716        C  0.52630512  0.84744532  0.58027038    -0.15900
C717        C  0.55100887  0.85932600  0.54578951    -0.10700
C718        C  0.57979236  0.82959774  0.52597962     0.08600
C719        C  0.57132088  0.73790737  0.59650748     0.09600
S720        S  0.49924714  0.79523039  0.64174823    -0.25100
H721        H  0.50421713  0.87014045  0.59570026     0.19900
S722        S  0.61070600  0.84056851  0.47961090    -0.30800
H723        H  0.60796099  0.76740228  0.52812098     0.10200
C724        C  0.55638840  0.69949241  0.57883373     0.03400
C725        C  0.56977799  0.66106354  0.59421864    -0.13100
C726        C  0.59936881  0.65915221  0.62685002    -0.08700
C727        C  0.61320909  0.69930390  0.64499094     0.06800
C728        C  0.59868564  0.73761706  0.62981662    -0.13800
S729        S  0.52075942  0.69943642  0.53567118    -0.30700
H730        H  0.55794685  0.63279939  0.57824049     0.11100
S731        S  0.65130716  0.70381017  0.68574687    -0.27800
H732        H  0.61024235  0.76781927  0.64260113     0.08300
H733        H  0.58240560  0.86981258  0.46393289     0.26800
H734        H  0.52551916  0.65603239  0.52258853     0.21600
H735        H  0.64427827  0.74710494  0.69821760     0.26900
H736        H  0.49640390  0.75136721  0.63067078     0.15700
C737        C  0.74186525  0.60723347  0.63165482    -0.11600
C738        C  0.74889961  0.61226413  0.58878511     0.15000
C739        C  0.71757864  0.63014609  0.56525290     0.01900
C740        C  0.67732644  0.63435586  0.58327310    -0.15900
C741        C  0.66761465  0.62039481  0.62417489    -0.10700
C742        C  0.70255794  0.61394760  0.65069414     0.08600
C743        C  0.78821765  0.59448840  0.57042587     0.09600
S744        S  0.72543249  0.64310888  0.51097926    -0.25100
H745        H  0.65266068  0.64409177  0.56321432     0.19900
S746        S  0.70171873  0.61708465  0.70815565    -0.30800
H747        H  0.76752440  0.59683131  0.65017500     0.10200
C748        C  0.82468463  0.61835439  0.57334540     0.03400
C749        C  0.86312273  0.59717387  0.56935469    -0.13100
C750        C  0.86570116  0.55249619  0.56351257    -0.08700
C751        C  0.82913429  0.52874349  0.55843810     0.06800
C752        C  0.79066491  0.55017412  0.56128219    -0.13800
S753        S  0.82205815  0.67533002  0.58514788    -0.30700
H754        H  0.89138670  0.61536520  0.57238807     0.11100
S755        S  0.82919575  0.47126295  0.55289514    -0.27800
H756        H  0.76237362  0.53179409  0.56028826     0.08300
H757        H  0.74468420  0.62195064  0.71393547     0.26800
H758        H  0.86525694  0.68199517  0.58526950     0.21600
H759        H  0.86293489  0.46509754  0.57929129     0.26900
H760        H  0.76910918  0.64363404  0.51058050     0.15700
C761        C  0.62150735  0.55246976  0.73835056    -0.11600
C762        C  0.59974789  0.57985757  0.76752728     0.15000
C763        C  0.58340371  0.61854169  0.75470895     0.01900
C764        C  0.59042285  0.62954594  0.71301615    -0.15900
C765        C  0.61404215  0.60297520  0.68312996    -0.10700
C766        C  0.62734827  0.56222172  0.69634673     0.08600
C767        C  0.59293843  0.56510069  0.81033154     0.09600
S768        S  0.55228180  0.65457860  0.78960019    -0.25100
H769        H  0.57582006  0.65863863  0.70417432     0.19900
S770        S  0.65370501  0.52212943  0.66150544    -0.30800
H771        H  0.63336157  0.52258778  0.74877997     0.10200
C772        C  0.56944138  0.52842584  0.81637756     0.03400
C773        C  0.56530996  0.51358209  0.85679225    -0.13100
C774        C  0.58335731  0.53499299  0.89194065    -0.08700
C775        C  0.60739505  0.57170951  0.88546352     0.06800
C776        C  0.61231020  0.58595430  0.84466662    -0.13800
S777        S  0.54316668  0.50131662  0.77285484    -0.30700
H778        H  0.54662791  0.48570047  0.86101962     0.11100
S779        S  0.63226523  0.60208630  0.92741256    -0.27800
H780        H  0.63104905  0.61371381  0.83964065     0.08300
H781        H  0.65923871  0.49059040  0.69049904     0.26800
H782        H  0.52983556  0.46604272  0.79458121     0.21600
H783        H  0.59406349  0.61587097  0.94680921     0.26900
H784        H  0.53453828  0.62319526  0.81390981     0.15700
loop_ 
_geom_bond_atom_site_label_1 
_geom_bond_atom_site_label_2 
_geom_bond_distance 
_geom_bond_site_symmetry_2 
_ccdc_geom_bond_type 
C1          C702   1.583       .  S
C1          C726   1.583       .  S
C1          C741   1.564       .  S
C1          C765   1.563       .  S
C2          C606   1.581       .  S
C2          C630   1.572       .  S
C2          C645   1.581       .  S
C2          C669   1.563       .  S
C3          C501   1.575       .  S
C3          C534   1.562       .  S
C3          C549   1.582       .  S
C3          C582   1.585       .  S
C4          C429   1.581       .  S
C4          C462   1.586       .  S
C4          C477   1.566       .  S
C4          C693   1.571       .  S
C5          C333   1.588       .  S
C5          C366   1.601       .  S
C5          C381   1.603       .  S
C5          C414   1.594       .  S
C6          C270   1.574       .  S
C6          C285   1.577       .  S
C6          C318   1.589       .  S
C6          C510   1.574       .  S
C7          C198   1.621       .  S
C7          C222   1.585       .  S
C7          C237   1.623       .  S
C7          C342   1.627       .  S
C8          C117   1.585       .  S
C8          C141   1.574       .  S
C8          C174   1.552       .  S
C8          C597   1.575       .  S
O9          Ni15   1.916       .  S
O9           C30   1.268   1_455  A
O10         Ni33   1.927       .  S
O10          C19   1.272       .  A
O11         Ni15   1.893   1_655  S
O11         Ni33   1.901   1_644  S
O11         Ni27   1.913       .  S
O11          H34   0.966       .  S
C12          O29   1.283       .  A
C12          O21   1.279       .  A
C12         C165   1.484       .  S
O13         Ni32   1.901   1_655  S
O13          C19   1.265   1_654  A
O14         Ni32   1.909   1_655  S
O14          C16   1.267       .  A
Ni15         O18   1.912   1_554  S
Ni15         O20   1.906       .  S
C16          O26   1.279   1_565  A
C16         C405   1.511       .  S
O17         Ni33   1.917   1_545  S
O17          C23   1.281       .  A
O18          C23   1.278       .  A
C19         C573   1.480       .  S
O20          C22   1.267   1_554  A
O21         Ni32   1.901       .  S
C22          O28   1.279       .  A
C22         C246   1.500       .  S
C23         C678   1.474   1_455  S
H24          O25   0.966       .  S
O25         Ni33   1.913   1_554  S
O25         Ni27   1.897   1_465  S
O25         Ni32   1.888       .  S
O26         Ni27   1.961       .  S
Ni27         O31   1.928       .  S
Ni27         O29   1.929   1_645  S
O28         Ni33   1.963   1_545  S
C30          O31   1.273       .  A
C30         C309   1.479       .  S
O35         Ni41   1.913   1_565  S
O35          C56   1.267       .  A
O36         Ni59   1.912       .  S
O36          C45   1.270       .  A
O37         Ni41   1.897       .  S
O37         Ni59   1.898       .  S
O37         Ni53   1.912   1_545  S
O37          H60   0.969       .  S
C38          O55   1.278       .  A
C38          O47   1.279       .  A
C38         C717   1.471       .  S
O39         Ni58   1.921   1_545  S
O39          C45   1.270       .  A
O40         Ni58   1.914       .  S
O40          C42   1.269       .  A
Ni41         O44   1.915       .  S
Ni41         O46   1.909       .  S
C42          O52   1.277       .  A
C42         C357   1.505       .  S
O43         Ni59   1.930       .  S
O43          C49   1.282       .  A
O44          C49   1.279       .  A
C45         C654   1.472       .  S
O46          C48   1.267       .  A
O47         Ni58   1.923       .  S
C48          O54   1.274       .  A
C48         C213   1.502       .  S
C49         C438   1.495       .  S
H50          O51   0.964   1_565  S
O51         Ni59   1.920       .  S
O51         Ni53   1.895   1_545  S
O51         Ni58   1.901   1_545  S
O52         Ni53   1.954       .  S
Ni53         O57   1.905       .  S
Ni53         O55   1.919       .  S
O54         Ni59   1.949       .  S
C56          O57   1.267       .  A
C56         C126   1.469       .  S
O61         Ni67   1.903       .  S
O61          C82   1.267       .  A
O62         Ni85   1.905       .  S
O62          C71   1.267       .  A
O63         Ni67   1.896   1_554  S
O63         Ni85   1.890       .  S
O63         Ni79   1.916       .  S
O63          H86   0.966       .  S
C64          O81   1.277       .  A
C64          O73   1.281       .  A
C64         C294   1.485       .  S
O65         Ni84   1.920       .  S
O65          C71   1.271       .  A
O66         Ni84   1.919       .  S
O66          C68   1.269       .  A
Ni67         O70   1.904       .  S
Ni67         O72   1.911       .  S
C68          O78   1.276       .  A
C68         C390   1.497       .  S
O69         Ni85   1.928       .  S
O69          C75   1.283   1_554  A
O70          C75   1.278       .  A
C71         C486   1.471       .  S
O72          C74   1.268       .  A
O73         Ni84   1.923       .  S
C74          O80   1.274   1_556  A
C74         C189   1.496       .  S
C75         C525   1.474       .  S
H76          O77   0.966       .  S
O77         Ni85   1.923       .  S
O77         Ni79   1.895       .  S
O77         Ni84   1.899       .  S
O78         Ni79   1.952       .  S
Ni79         O83   1.909   1_554  S
Ni79         O81   1.915       .  S
O80         Ni85   1.947       .  S
C82          O83   1.264       .  A
C82         C774   1.484       .  S
O87         Ni93   1.895       .  S
O87         C108   1.263       .  A
O88        Ni111   1.908       .  S
O88          C97   1.270       .  A
O89         Ni93   1.890       .  S
O89        Ni111   1.885   1_655  S
O89        Ni105   1.914       .  S
O89         H112   0.966       .  S
C90         O107   1.278       .  A
C90          O99   1.276   1_655  A
C90         C621   1.482       .  S
O91        Ni110   1.921       .  S
O91          C97   1.271       .  A
O92        Ni110   1.910       .  S
O92          C94   1.268   1_455  A
Ni93         O96   1.906   1_655  S
Ni93         O98   1.897   1_655  S
C94         O104   1.270       .  A
C94         C261   1.474       .  S
O95        Ni111   1.925       .  S
O95         C101   1.283       .  A
O96         C101   1.279       .  A
C97         C453   1.473       .  S
O98         C100   1.264       .  A
O99        Ni110   1.914       .  S
C100        O106   1.270       .  A
C100        C558   1.476       .  S
C101        C150   1.470       .  S
H102        O103   0.967       .  S
O103       Ni111   1.915       .  S
O103       Ni105   1.898   1_455  S
O103       Ni110   1.889       .  S
O104       Ni105   1.926       .  S
Ni105       O109   1.912       .  S
Ni105       O107   1.916       .  S
O106       Ni111   1.930       .  S
C108        O109   1.265       .  A
C108        C750   1.463       .  S
C113        C114   1.395       .  A
C113        C118   1.404       .  A
C113        H123   1.083   1_565  S
C114        C119   1.468       .  S
C114        C115   1.396       .  A
C115        C116   1.387       .  A
C115        S120   1.808       .  S
C116        C117   1.428       .  A
C116        H121   1.075       .  S
C117        C118   1.435       .  A
C118        S122   1.805   1_565  S
C119        C124   1.406       .  A
C119        C128   1.399       .  A
S120        H136   1.406       .  S
S122        H133   1.407       .  S
C124        C125   1.401       .  A
C124        S129   1.806       .  S
C125        C126   1.406       .  A
C125        H130   1.083       .  S
C126        C127   1.414       .  A
C127        C128   1.391       .  A
C127        S131   1.804       .  S
C128        H132   1.084       .  S
S129        H134   1.407       .  S
S131        H135   1.407       .  S
C137        C138   1.390       .  A
C137        C142   1.394       .  A
C137        H147   1.085       .  S
C138        C143   1.468       .  S
C138        C139   1.402       .  A
C139        C140   1.392       .  A
C139        S144   1.806       .  S
C140        C141   1.420       .  A
C140        H145   1.073       .  S
C141        C142   1.444       .  A
C142        S146   1.811       .  S
C143        C148   1.404       .  A
C143        C152   1.403       .  A
S144        H160   1.406       .  S
S146        H157   1.397       .  S
C148        C149   1.393       .  A
C148        S153   1.809   1_455  S
C149        C150   1.406       .  A
C149        H154   1.083   1_455  S
C150        C151   1.413       .  A
C151        C152   1.399       .  A
C151        S155   1.803       .  S
C152        H156   1.084       .  S
S153        H158   1.407       .  S
S155        H159   1.407       .  S
C161        C162   1.399       .  A
C161        C166   1.396       .  A
C161        H171   1.084   1_565  S
C162        C167   1.465       .  S
C162        C163   1.404       .  A
C163        C164   1.391       .  A
C163        S168   1.806       .  S
C164        C165   1.412       .  A
C164        H169   1.083       .  S
C165        C166   1.419       .  A
C166        S170   1.800   1_565  S
C167        C172   1.399       .  A
C167        C176   1.389       .  A
S168        H184   1.406       .  S
S170        H181   1.408       .  S
C172        C173   1.399       .  A
C172        S177   1.807       .  S
C173        C174   1.420       .  A
C173        H178   1.073       .  S
C174        C175   1.443       .  A
C175        C176   1.389       .  A
C175        S179   1.813       .  S
C176        H180   1.085       .  S
S177        H182   1.407       .  S
S179        H183   1.395       .  S
C185        C186   1.409   1_554  A
C185        C190   1.413       .  A
C185        H195   1.083       .  S
C186        C191   1.503       .  S
C186        C187   1.415       .  A
C187        C188   1.403       .  A
C187        S192   1.804       .  S
C188        C189   1.406       .  A
C188        H193   1.084       .  S
C189        C190   1.416   1_556  A
C190        S194   1.801       .  S
C191        C196   1.401       .  A
C191        C200   1.399   1_556  A
S192        H208   1.406       .  S
S194        H205   1.406       .  S
C196        C197   1.404       .  A
C196        S201   1.808       .  S
C197        C198   1.430       .  A
C197        H202   1.075       .  S
C198        C199   1.457       .  A
C199        C200   1.415   1_556  A
C199        S203   1.822   1_556  S
C200        H204   1.084       .  S
S201        H206   1.407       .  S
S203        H207   1.397       .  S
C209        C210   1.407       .  A
C209        C214   1.411       .  A
C209        H219   1.084       .  S
C210        C215   1.499       .  S
C210        C211   1.412       .  A
C211        C212   1.403       .  A
C211        S216   1.802       .  S
C212        C213   1.409       .  A
C212        H217   1.084       .  S
C213        C214   1.419       .  A
C214        S218   1.799       .  S
C215        C220   1.406       .  A
C215        C224   1.399       .  A
S216        H232   1.406       .  S
S218        H229   1.407       .  S
C220        C221   1.411       .  A
C220        S225   1.805       .  S
C221        C222   1.422       .  A
C221        H226   1.077       .  S
C222        C223   1.437       .  A
C223        C224   1.410       .  A
C223        S227   1.811       .  S
C224        H228   1.083       .  S
S225        H230   1.407       .  S
S227        H231   1.406       .  S
C233        C234   1.398       .  A
C233        C238   1.419       .  A
C233        H243   1.083       .  S
C234        C239   1.507       .  S
C234        C235   1.406       .  A
C235        C236   1.405       .  A
C235        S240   1.805   1_556  S
C236        C237   1.424       .  A
C236        H241   1.071       .  S
C237        C238   1.447       .  A
C238        S242   1.812       .  S
C239        C244   1.414       .  A
C239        C248   1.409       .  A
S240        H256   1.406       .  S
S242        H253   1.408   1_545  S
C244        C245   1.408       .  A
C244        S249   1.808       .  S
C245        C246   1.408       .  A
C245        H250   1.083       .  S
C246        C247   1.416   1_556  A
C247        C248   1.415   1_554  A
C247        S251   1.801   1_545  S
C248        H252   1.083   1_556  S
S249        H254   1.407       .  S
S251        H255   1.406   1_565  S
C257        C258   1.401       .  A
C257        C262   1.396       .  A
C257        H267   1.084       .  S
C258        C263   1.478       .  S
C258        C259   1.413       .  A
C259        C260   1.402       .  A
C259        S264   1.803       .  S
C260        C261   1.404       .  A
C260        H265   1.084       .  S
C261        C262   1.413       .  A
C262        S266   1.804       .  S
C263        C268   1.399       .  A
C263        C272   1.394       .  A
S264        H280   1.406       .  S
S266        H277   1.406       .  S
C268        C269   1.397       .  A
C268        S273   1.808   1_655  S
C269        C270   1.421       .  A
C269        H274   1.074       .  S
C270        C271   1.443       .  A
C271        C272   1.402       .  A
C271        S275   1.805       .  S
C272        H276   1.085       .  S
S273        H278   1.407       .  S
S275        H279   1.400       .  S
C281        C282   1.391       .  A
C281        C286   1.398       .  A
C281        H291   1.084       .  S
C282        C287   1.475       .  S
C282        C283   1.403       .  A
C283        C284   1.398       .  A
C283        S288   1.805       .  S
C284        C285   1.424       .  A
C284        H289   1.077       .  S
C285        C286   1.438       .  A
C286        S290   1.803       .  S
C287        C292   1.406       .  A
C287        C296   1.400       .  A
S288        H304   1.405       .  S
S290        H301   1.407       .  S
C292        C293   1.399       .  A
C292        S297   1.808       .  S
C293        C294   1.409       .  A
C293        H298   1.082       .  S
C294        C295   1.420       .  A
C295        C296   1.399       .  A
C295        S299   1.803       .  S
C296        H300   1.084       .  S
S297        H302   1.406       .  S
S299        H303   1.406       .  S
C305        C306   1.404       .  A
C305        C310   1.399   1_655  A
C305        H315   1.084   1_655  S
C306        C311   1.492       .  S
C306        C307   1.418       .  A
C307        C308   1.405       .  A
C307        S312   1.806       .  S
C308        C309   1.404       .  A
C308        H313   1.084       .  S
C309        C310   1.413   1_655  A
C310        S314   1.804       .  S
C311        C316   1.402       .  A
C311        C320   1.400       .  A
S312        H328   1.405       .  S
S314        H325   1.404       .  S
C316        C317   1.402       .  A
C316        S321   1.808       .  S
C317        C318   1.424       .  A
C317        H322   1.076       .  S
C318        C319   1.442       .  A
C319        C320   1.405       .  A
C319        S323   1.810   1_655  S
C320        H324   1.085   1_655  S
S321        H326   1.407       .  S
S323        H327   1.399       .  S
C329        C330   1.405       .  A
C329        C334   1.410   1_545  A
C329        H339   1.079       .  S
C330        C335   1.524       .  S
C330        C331   1.418   1_545  A
C331        C332   1.409       .  A
C331        S336   1.805       .  S
C332        C333   1.422       .  A
C332        H337   1.080       .  S
C333        C334   1.430       .  A
C334        S338   1.803   1_565  S
C335        C340   1.410       .  A
C335        C344   1.399   1_554  A
S336        H352   1.407       .  S
S338        H349   1.407       .  S
C340        C341   1.409       .  A
C340        S345   1.811       .  S
C341        C342   1.432   1_554  A
C341        H346   1.070       .  S
C342        C343   1.445       .  A
C343        C344   1.415       .  A
C343        S347   1.789   1_545  S
C344        H348   1.082   1_545  S
S345        H350   1.407       .  S
S347        H351   1.408       .  S
C353        C354   1.410       .  A
C353        C358   1.413       .  A
C353        H363   1.083   1_565  S
C354        C359   1.509       .  S
C354        C355   1.416       .  A
C355        C356   1.406       .  A
C355        S360   1.804       .  S
C356        C357   1.409       .  A
C356        H361   1.084       .  S
C357        C358   1.418       .  A
C358        S362   1.800   1_565  S
C359        C364   1.406       .  A
C359        C368   1.400       .  A
S360        H376   1.407       .  S
S362        H373   1.407       .  S
C364        C365   1.410       .  A
C364        S369   1.807       .  S
C365        C366   1.426       .  A
C365        H370   1.079       .  S
C366        C367   1.444       .  A
C367        C368   1.414       .  A
C367        S371   1.809       .  S
C368        H372   1.083       .  S
S369        H374   1.407       .  S
S371        H375   1.408       .  S
C377        C378   1.401       .  A
C377        C382   1.413       .  A
C377        H387   1.083       .  S
C378        C383   1.511       .  S
C378        C379   1.412       .  A
C379        C380   1.407       .  A
C379        S384   1.804       .  S
C380        C381   1.425       .  A
C380        H385   1.079       .  S
C381        C382   1.435       .  A
C382        S386   1.798       .  S
C383        C388   1.419       .  A
C383        C392   1.406       .  A
S384        H400   1.406       .  S
S386        H397   1.407   1_554  S
C388        C389   1.415       .  A
C388        S393   1.806       .  S
C389        C390   1.406       .  A
C389        H394   1.083       .  S
C390        C391   1.418       .  A
C391        C392   1.406       .  A
C391        S395   1.804       .  S
C392        H396   1.084       .  S
S393        H398   1.407       .  S
S395        H399   1.403       .  S
C401        C402   1.409       .  A
C401        C406   1.414       .  A
C401        H411   1.084   1_565  S
C402        C407   1.506       .  S
C402        C403   1.414       .  A
C403        C404   1.407       .  A
C403        S408   1.805       .  S
C404        C405   1.413       .  A
C404        H409   1.084       .  S
C405        C406   1.420       .  A
C406        S410   1.801   1_565  S
C407        C412   1.407       .  A
C407        C416   1.397       .  A
S408        H424   1.405       .  S
S410        H421   1.407       .  S
C412        C413   1.412       .  A
C412        S417   1.806       .  S
C413        C414   1.424       .  A
C413        H418   1.080       .  S
C414        C415   1.446       .  A
C415        C416   1.415       .  A
C415        S419   1.812       .  S
C416        H420   1.082       .  S
S417        H422   1.407       .  S
S419        H423   1.406   1_565  S
C425        C426   1.395       .  A
C425        C430   1.406       .  A
C425        H435   1.083       .  S
C426        C431   1.479       .  S
C426        C427   1.402       .  A
C427        C428   1.393       .  A
C427        S432   1.805       .  S
C428        C429   1.425       .  A
C428        H433   1.084       .  S
C429        C430   1.443       .  A
C430        S434   1.813       .  S
C431        C436   1.405       .  A
C431        C440   1.401       .  A
S432        H448   1.406       .  S
S434        H445   1.407       .  S
C436        C437   1.400       .  A
C436        S441   1.809       .  S
C437        C438   1.414       .  A
C437        H442   1.082       .  S
C438        C439   1.420       .  A
C439        C440   1.401       .  A
C439        S443   1.801       .  S
C440        H444   1.084       .  S
S441        H446   1.406       .  S
S443        H447   1.408       .  S
C449        C450   1.399       .  A
C449        C454   1.395       .  A
C449        H459   1.084       .  S
C450        C455   1.469       .  S
C450        C451   1.410       .  A
C451        C452   1.398       .  A
C451        S456   1.806       .  S
C452        C453   1.404       .  A
C452        H457   1.084       .  S
C453        C454   1.415       .  A
C454        S458   1.804       .  S
C455        C460   1.398       .  A
C455        C464   1.390       .  A
S456        H472   1.405       .  S
S458        H469   1.407       .  S
C460        C461   1.396       .  A
C460        S465   1.809       .  S
C461        C462   1.423       .  A
C461        H466   1.075       .  S
C462        C463   1.440       .  A
C463        C464   1.399       .  A
C463        S467   1.810       .  S
C464        H468   1.083       .  S
S465        H470   1.407       .  S
S467        H471   1.407       .  S
C473        C474   1.395       .  A
C473        C478   1.400       .  A
C473        H483   1.084       .  S
C474        C479   1.478       .  S
C474        C475   1.401       .  A
C475        C476   1.394       .  A
C475        S480   1.804       .  S
C476        C477   1.424       .  A
C476        H481   1.083       .  S
C477        C478   1.442       .  A
C478        S482   1.811       .  S
C479        C484   1.412       .  A
C479        C488   1.400       .  A
S480        H496   1.406       .  S
S482        H493   1.407       .  S
C484        C485   1.399       .  A
C484        S489   1.808       .  S
C485        C486   1.402       .  A
C485        H490   1.083       .  S
C486        C487   1.415       .  A
C487        C488   1.396       .  A
C487        S491   1.801       .  S
C488        H492   1.084       .  S
S489        H494   1.407       .  S
S491        H495   1.407       .  S
C497        C498   1.391       .  A
C497        C502   1.395   1_554  A
C497        H507   1.086       .  S
C498        C503   1.486   1_455  S
C498        C499   1.408   1_554  A
C499        C500   1.404       .  A
C499        S504   1.804   1_455  S
C500        C501   1.424       .  A
C500        H505   1.083       .  S
C501        C502   1.449       .  A
C502        S506   1.815   1_556  S
C503        C508   1.401       .  A
C503        C512   1.396   1_655  A
S504        H520   1.405   1_556  S
S506        H517   1.392       .  S
C508        C509   1.404       .  A
C508        S513   1.806   1_554  S
C509        C510   1.427       .  A
C509        H514   1.082       .  S
C510        C511   1.446       .  A
C511        C512   1.399   1_655  A
C511        S515   1.810       .  S
C512        H516   1.085       .  S
S513        H518   1.407       .  S
S515        H519   1.397       .  S
C521        C522   1.404       .  A
C521        C526   1.401   1_556  A
C521        H531   1.084   1_556  S
C522        C527   1.470       .  S
C522        C523   1.407       .  A
C523        C524   1.389       .  A
C523        S528   1.806       .  S
C524        C525   1.406       .  A
C524        H529   1.084       .  S
C525        C526   1.414   1_556  A
C526        S530   1.803       .  S
C527        C532   1.399       .  A
C527        C536   1.394       .  A
S528        H544   1.406       .  S
S530        H541   1.407       .  S
C532        C533   1.397       .  A
C532        S537   1.807       .  S
C533        C534   1.423       .  A
C533        H538   1.081       .  S
C534        C535   1.438       .  A
C535        C536   1.397       .  A
C535        S539   1.805       .  S
C536        H540   1.085       .  S
S537        H542   1.407       .  S
S539        H543   1.399       .  S
C545        C546   1.400       .  A
C545        C550   1.408       .  A
C545        H555   1.082       .  S
C546        C551   1.482       .  S
C546        C547   1.403       .  A
C547        C548   1.391       .  A
C547        S552   1.806       .  S
C548        C549   1.421       .  A
C548        H553   1.078       .  S
C549        C550   1.434       .  A
C550        S554   1.809       .  S
C551        C556   1.411       .  A
C551        C560   1.402       .  A
S552        H568   1.406       .  S
S554        H565   1.407       .  S
C556        C557   1.405       .  A
C556        S561   1.806       .  S
C557        C558   1.405       .  A
C557        H562   1.083       .  S
C558        C559   1.414       .  A
C559        C560   1.395       .  A
C559        S563   1.804       .  S
C560        H564   1.084       .  S
S561        H566   1.407       .  S
S563        H567   1.407       .  S
C569        C570   1.404       .  A
C569        C574   1.403       .  A
C569        H579   1.084       .  S
C570        C575   1.478       .  S
C570        C571   1.411       .  A
C571        C572   1.396       .  A
C571        S576   1.808   1_455  S
C572        C573   1.406       .  A
C572        H577   1.084   1_455  S
C573        C574   1.415       .  A
C574        S578   1.802       .  S
C575        C580   1.397       .  A
C575        C584   1.396       .  A
S576        H592   1.404       .  S
S578        H589   1.408   1_556  S
C580        C581   1.396       .  A
C580        S585   1.808       .  S
C581        C582   1.427       .  A
C581        H586   1.075       .  S
C582        C583   1.434       .  A
C583        C584   1.407       .  A
C583        S587   1.802   1_556  S
C584        H588   1.083   1_556  S
S585        H590   1.407       .  S
S587        H591   1.406       .  S
C593        C594   1.389       .  A
C593        C598   1.391   1_545  A
C593        H603   1.085       .  S
C594        C599   1.474       .  S
C594        C595   1.403   1_545  A
C595        C596   1.397       .  A
C595        S600   1.804   1_565  S
C596        C597   1.422       .  A
C596        H601   1.083       .  S
C597        C598   1.447       .  A
C598        S602   1.811   1_565  S
C599        C604   1.397       .  A
C599        C608   1.393   1_455  A
S600        H616   1.407       .  S
S602        H613   1.395       .  S
C604        C605   1.393   1_455  A
C604        S609   1.811       .  S
C605        C606   1.428       .  A
C605        H610   1.072       .  S
C606        C607   1.441       .  A
C607        C608   1.399       .  A
C607        S611   1.811       .  S
C608        H612   1.085   1_545  S
S609        H614   1.407       .  S
S611        H615   1.390       .  S
C617        C618   1.397       .  A
C617        C622   1.396       .  A
C617        H627   1.083       .  S
C618        C623   1.466       .  S
C618        C619   1.406       .  A
C619        C620   1.397       .  A
C619        S624   1.805       .  S
C620        C621   1.410       .  A
C620        H625   1.084       .  S
C621        C622   1.419       .  A
C622        S626   1.811   1_655  S
C623        C628   1.394       .  A
C623        C632   1.395       .  A
S624        H640   1.405       .  S
S626        H637   1.407       .  S
C628        C629   1.389       .  A
C628        S633   1.808       .  S
C629        C630   1.425       .  A
C629        H634   1.081       .  S
C630        C631   1.439       .  A
C631        C632   1.404       .  A
C631        S635   1.815       .  S
C632        H636   1.083       .  S
S633        H638   1.407       .  S
S635        H639   1.406       .  S
C641        C642   1.395       .  A
C641        C646   1.401       .  A
C641        H651   1.082       .  S
C642        C647   1.490       .  S
C642        C643   1.409       .  A
C643        C644   1.400       .  A
C643        S648   1.805       .  S
C644        C645   1.421       .  A
C644        H649   1.078       .  S
C645        C646   1.436       .  A
C646        S650   1.809       .  S
C647        C652   1.415       .  A
C647        C656   1.406       .  A
S648        H664   1.406       .  S
S650        H661   1.406       .  S
C652        C653   1.402       .  A
C652        S657   1.809       .  S
C653        C654   1.402       .  A
C653        H658   1.083       .  S
C654        C655   1.410       .  A
C655        C656   1.399       .  A
C655        S659   1.804       .  S
C656        H660   1.084       .  S
S657        H662   1.407       .  S
S659        H663   1.407       .  S
C665        C666   1.392       .  A
C665        C670   1.400       .  A
C665        H675   1.083   1_655  S
C666        C671   1.469       .  S
C666        C667   1.402       .  A
C667        C668   1.392       .  A
C667        S672   1.805       .  S
C668        C669   1.418       .  A
C668        H673   1.077       .  S
C669        C670   1.440       .  A
C670        S674   1.812   1_655  S
C671        C676   1.406       .  A
C671        C680   1.396       .  A
S672        H688   1.406       .  S
S674        H685   1.407       .  S
C676        C677   1.401   1_655  A
C676        S681   1.806   1_645  S
C677        C678   1.406   1_455  A
C677        H682   1.083       .  S
C678        C679   1.419       .  A
C679        C680   1.394       .  A
C679        S683   1.813       .  S
C680        H684   1.083       .  S
S681        H686   1.407       .  S
S683        H687   1.406       .  S
C689        C690   1.398       .  A
C689        C694   1.399       .  A
C689        H699   1.083       .  S
C690        C695   1.484       .  S
C690        C691   1.407       .  A
C691        C692   1.392       .  A
C691        S696   1.808       .  S
C692        C693   1.419       .  A
C692        H697   1.073       .  S
C693        C694   1.436       .  A
C694        S698   1.809       .  S
C695        C700   1.402       .  A
C695        C704   1.397       .  A
S696        H712   1.404       .  S
S698        H709   1.407       .  S
C700        C701   1.395       .  A
C700        S705   1.809       .  S
C701        C702   1.428       .  A
C701        H706   1.080       .  S
C702        C703   1.441       .  A
C703        C704   1.397       .  A
C703        S707   1.806       .  S
C704        H708   1.084       .  S
S705        H710   1.407       .  S
S707        H711   1.393       .  S
C713        C714   1.402       .  A
C713        C718   1.398       .  A
C713        H723   1.084       .  S
C714        C719   1.474       .  S
C714        C715   1.408       .  A
C715        C716   1.399       .  A
C715        S720   1.803       .  S
C716        C717   1.405       .  A
C716        H721   1.084       .  S
C717        C718   1.412       .  A
C718        S722   1.804       .  S
C719        C724   1.396       .  A
C719        C728   1.393       .  A
S720        H736   1.406       .  S
S722        H733   1.407       .  S
C724        C725   1.397       .  A
C724        S729   1.808       .  S
C725        C726   1.428       .  A
C725        H730   1.074       .  S
C726        C727   1.435       .  A
C727        C728   1.403       .  A
C727        S731   1.805       .  S
C728        H732   1.083       .  S
S729        H734   1.406       .  S
S731        H735   1.407       .  S
C737        C738   1.390       .  A
C737        C742   1.392       .  A
C737        H747   1.084       .  S
C738        C743   1.465       .  S
C738        C739   1.402       .  A
C739        C740   1.400       .  A
C739        S744   1.804       .  S
C740        C741   1.422       .  A
C740        H745   1.083       .  S
C741        C742   1.441       .  A
C742        S746   1.817       .  S
C743        C748   1.402       .  A
C743        C752   1.405       .  A
S744        H760   1.404       .  S
S746        H757   1.407       .  S
C748        C749   1.394       .  A
C748        S753   1.807       .  S
C749        C750   1.406       .  A
C749        H754   1.083       .  S
C750        C751   1.408       .  A
C751        C752   1.398       .  A
C751        S755   1.804       .  S
C752        H756   1.084       .  S
S753        H758   1.407       .  S
S755        H759   1.407       .  S
C761        C762   1.390       .  A
C761        C766   1.393       .  A
C761        H771   1.083       .  S
C762        C767   1.472       .  S
C762        C763   1.405       .  A
C763        C764   1.399       .  A
C763        S768   1.805       .  S
C764        C765   1.419       .  A
C764        H769   1.078       .  S
C765        C766   1.436       .  A
C766        S770   1.808       .  S
C767        C772   1.406       .  A
C767        C776   1.400       .  A
S768        H784   1.406       .  S
S770        H781   1.406       .  S
C772        C773   1.394       .  A
C772        S777   1.811       .  S
C773        C774   1.408       .  A
C773        H778   1.082       .  S
C774        C775   1.419       .  A
C775        C776   1.400       .  A
C775        S779   1.800       .  S
C776        H780   1.084       .  S
S777        H782   1.406       .  S
S779        H783   1.408       .  S
