geometry optimzed in LAMMPS
_audit_creation_date              2020-11-30 
_audit_creation_method            'lammps2cif' 
_symmetry_space_group_name_H-M    'P1' 
_symmetry_Int_Tables_number       1 
_symmetry_cell_setting            triclinic 
loop_ 
_symmetry_equiv_pos_as_xyz 
  x,y,z 
_cell_length_a                    41.0236063 
_cell_length_b                    40.91252965507354 
_cell_length_c                    56.194322046005674 
_cell_angle_alpha                 89.97714680689843 
_cell_angle_beta                  90.02862113557705 
_cell_angle_gamma                 89.92439919534482 
loop_ 
_atom_site_label 
_atom_site_type_symbol 
_atom_site_fract_x 
_atom_site_fract_y 
_atom_site_fract_z 
_atom_site_charge 
In1        In  0.39939346  0.73026580  0.91864675     1.36900
C2          C  0.40452374  0.76411625  0.87868324     0.78600
O3          O  0.44887664  0.74515046  0.92947817    -0.59800
O4          O  0.44304968  0.69701174  0.91623968    -0.50700
C5          C  0.38121052  0.74158287  0.96321479     0.71300
O6          O  0.38043009  0.76406483  0.94770139    -0.45600
C7          C  0.35182139  0.69018666  0.90882260     0.76000
O8          O  0.40544670  0.77757751  0.89890590    -0.57400
O9          O  0.38115288  0.68085023  0.91061594    -0.47500
O10         O  0.39875376  0.73397347  0.87891784    -0.53900
C11         C  0.46230708  0.71852100  0.92406934     0.86200
O12         O  0.39070919  0.71422725  0.95562081    -0.55800
O13         O  0.34709433  0.72053612  0.91164877    -0.59100
In14       In  0.66550255  0.71068599  0.91686191     1.36900
C15         C  0.65929042  0.74013206  0.87546352     0.78600
O16         O  0.71745005  0.69775052  0.90980932    -0.59800
O17         O  0.68154552  0.65998513  0.90969189    -0.50700
C18         C  0.68206824  0.72082630  0.96180782     0.71300
O19         O  0.68572494  0.74316606  0.94634522    -0.45600
C20         C  0.60214257  0.70849211  0.92351353     0.76000
O21         O  0.66808136  0.75556761  0.89393881    -0.57400
O22         O  0.61831499  0.68320510  0.91811813    -0.47500
O23         O  0.65614733  0.70972339  0.87794576    -0.53900
C24         C  0.71132024  0.66754800  0.90773132     0.86200
O25         O  0.67054221  0.69443262  0.95387530    -0.55800
O26         O  0.61885636  0.73407944  0.92607105    -0.59100
In27       In  0.39268132  0.73100980  0.11015347     1.36900
C28         C  0.39608709  0.76807579  0.14844443     0.78600
O29         O  0.34057465  0.71984708  0.11698166    -0.59800
O30         O  0.37604955  0.68225106  0.12202854    -0.50700
C31         C  0.37769306  0.74089601  0.06462505     0.71300
O32         O  0.37767938  0.76401864  0.07955184    -0.45600
C33         C  0.45605201  0.72119017  0.10550685     0.76000
O34         O  0.39073187  0.77981292  0.12800685    -0.57400
O35         O  0.43666335  0.69813038  0.11011736    -0.47500
O36         O  0.39682010  0.73738419  0.14954689    -0.53900
C37         C  0.34634787  0.69044539  0.12261264     0.86200
O38         O  0.38417998  0.71325194  0.07330874    -0.55800
O39         O  0.44266299  0.74866574  0.10319427    -0.59100
In40       In  0.65980911  0.71092329  0.10802002     1.36900
C41         C  0.65587899  0.74501121  0.14773439     0.78600
O42         O  0.61317427  0.73485130  0.09933402    -0.59800
O43         O  0.61183005  0.68446018  0.10842668    -0.50700
C44         C  0.67732698  0.72069951  0.06306785     0.71300
O45         O  0.68221813  0.74233100  0.07879595    -0.45600
C46         C  0.70403016  0.66599726  0.11706192     0.76000
O47         O  0.66369309  0.75774756  0.12802400    -0.57400
O48         O  0.67403667  0.65940860  0.11503508    -0.47500
O49         O  0.65327182  0.71433211  0.14761358    -0.53900
C50         C  0.59594883  0.70990402  0.10296330     0.86200
O51         O  0.66355367  0.69517505  0.07056078    -0.55800
O52         O  0.71093831  0.69605964  0.11553836    -0.59100
In53       In  0.74113960  0.01087129  0.61244776     1.36900
C54         C  0.70257340  0.01197099  0.65012643     0.78600
O55         O  0.71467534  0.96580049  0.60375434    -0.59800
O56         O  0.76314321  0.96021413  0.61642191    -0.50700
C57         C  0.73543898  0.02499272  0.56644919     0.71300
O58         O  0.71323919  0.03206039  0.58124123    -0.45600
C59         C  0.78630479  0.05463754  0.62255250     0.76000
O60         O  0.69243834  0.01872080  0.62943695    -0.57400
O61         O  0.79261683  0.02435750  0.62130051    -0.47500
O62         O  0.73296694  0.00799759  0.65188419    -0.53900
C63         C  0.73701729  0.94643601  0.60979867     0.86200
O64         O  0.76027755  0.01157052  0.57542506    -0.55800
O65         O  0.75665497  0.06197324  0.61938125    -0.59100
In66       In  0.69749374  0.74459452  0.60938292     1.36900
C67         C  0.66041739  0.75000578  0.64764516     0.78600
O68         O  0.70738513  0.69123111  0.61397653    -0.59800
O69         O  0.74481837  0.72585851  0.62200895    -0.50700
C70         C  0.69225068  0.73190404  0.56315497     0.71300
O71         O  0.66899479  0.72573020  0.57734453    -0.45600
C72         C  0.71250562  0.80738730  0.60906771     0.76000
O73         O  0.64889945  0.75546475  0.62714275    -0.57400
O74         O  0.73322447  0.78568674  0.61432688    -0.47500
O75         O  0.68863203  0.73807039  0.64783502    -0.53900
C76         C  0.73643582  0.69615502  0.62078580     0.86200
O77         O  0.71704154  0.74411167  0.57289172    -0.55800
O78         O  0.68478891  0.79651035  0.60358005    -0.59100
In79       In  0.73549436  0.01730642  0.41739278     1.36900
C80         C  0.69931360  0.01875203  0.37835865     0.78600
O81         O  0.75059392  0.06907787  0.41287588    -0.59800
O82         O  0.78627644  0.03151881  0.40841306    -0.50700
C83         C  0.73193027  0.02760444  0.46398720     0.71300
O84         O  0.70892357  0.03591037  0.45011604    -0.45600
C85         C  0.73296603  0.95304627  0.41875943     0.76000
O86         O  0.68722273  0.02421450  0.39873095    -0.57400
O87         O  0.75856022  0.96779644  0.41218257    -0.47500
O88         O  0.72990525  0.01607128  0.37794584    -0.53900
C89         C  0.78009521  0.06185845  0.40874144     0.86200
O90         O  0.75619643  0.01479521  0.45381334    -0.55800
O91         O  0.70999989  0.97147314  0.42518156    -0.59100
In92       In  0.70180117  0.74986036  0.41476319     1.36900
C93         C  0.66337479  0.75373343  0.37688322     0.78600
O94         O  0.68792427  0.80072078  0.42374612    -0.59800
O95         O  0.73482722  0.79302066  0.40898449    -0.50700
C96         C  0.69470666  0.73542063  0.46076473     0.71300
O97         O  0.67187673  0.73056894  0.44597809    -0.45600
C98         C  0.74373345  0.70334132  0.40565702     0.76000
O99         O  0.65239821  0.75442395  0.39788644    -0.57400
O100        O  0.75099839  0.73331844  0.40487823    -0.47500
O101        O  0.69323096  0.74718067  0.37528978    -0.53900
C102        C  0.71423070  0.81328642  0.41675406     0.86200
O103        O  0.72013592  0.74738930  0.45176865    -0.55800
O104        O  0.71414424  0.69718748  0.41022375    -0.59100
C105        C  0.40815501  0.80152726  0.71520249     0.87500
C106        C  0.40815427  0.83733330  0.70640226    -0.52700
C107        C  0.42230865  0.84197493  0.68464439     0.10500
C108        C  0.43559026  0.81025581  0.67345137     0.21400
C109        C  0.39202144  0.78219380  0.69505835    -0.53400
C110        C  0.40615056  0.78667663  0.67318796     0.10600
C111        C  0.44437637  0.79216781  0.71409501    -0.52900
C112        C  0.45877250  0.79669195  0.69253248     0.11100
H113        H  0.40109408  0.85812001  0.71714306     0.15700
H114        H  0.44722567  0.81418824  0.65583324     0.01400
H115        H  0.37003919  0.76787847  0.69763564     0.16000
H116        H  0.45821600  0.78444297  0.72960877     0.15800
C117        C  0.44913690  0.01985651  0.71476330     0.87500
C118        C  0.48338271  0.02824822  0.70550306    -0.52700
C119        C  0.48882087  0.02095372  0.68210805     0.10500
C120        C  0.45897044  0.00614618  0.66974667     0.21400
C121        C  0.42584301  0.03828475  0.69765969    -0.53400
C122        C  0.43156032  0.03109423  0.67407639     0.10600
C123        C  0.44371541  0.98388229  0.70809581    -0.52900
C124        C  0.44910084  0.97657503  0.68491646     0.11100
H125        H  0.50240902  0.03756419  0.71710874     0.15700
H126        H  0.46268495  0.00002403  0.65069278     0.01400
H127        H  0.40598089  0.05399640  0.70306963     0.16000
H128        H  0.43592974  0.96545609  0.72082969     0.15800
C129        C  0.64944010  0.77333839  0.71215970     0.87500
C130        C  0.61208455  0.77482116  0.71243510    -0.52700
C131        C  0.59827171  0.78374873  0.69141755     0.10500
C132        C  0.62307972  0.79107640  0.67163498     0.21400
C133        C  0.65796551  0.75093671  0.69134670    -0.53400
C134        C  0.64482443  0.76034074  0.66999994     0.10600
C135        C  0.65913524  0.80803792  0.70373633    -0.52900
C136        C  0.64536617  0.81736847  0.68259714     0.11100
H137        H  0.59758356  0.77006706  0.72824268     0.15700
H138        H  0.61180795  0.79864275  0.65451430     0.01400
H139        H  0.67568121  0.73130776  0.69298246     0.16000
H140        H  0.67271803  0.82538489  0.71437677     0.15800
C141        C  0.66143796  0.99702910  0.71084207     0.87500
C142        C  0.65954892  0.96083509  0.70390722    -0.52700
C143        C  0.65248424  0.95500307  0.68072952     0.10500
C144        C  0.64825084  0.98632153  0.66578120     0.21400
C145        C  0.68752326  0.01082193  0.69365333    -0.53400
C146        C  0.68021450  0.00534729  0.67001772     0.10600
C147        C  0.62955197  0.01235399  0.70196564    -0.52900
C148        C  0.62218355  0.00676250  0.67866949     0.11100
H149        H  0.66335650  0.94108234  0.71657459     0.15700
H150        H  0.64284910  0.98141403  0.64675292     0.01400
H151        H  0.70987586  0.02272732  0.69907446     0.16000
H152        H  0.61309684  0.02527684  0.71385435     0.15800
C153        C  0.40841920  0.79804998  0.81500631     0.87500
C154        C  0.44517427  0.79063359  0.81399761    -0.52700
C155        C  0.46169820  0.79503452  0.83478830     0.10500
C156        C  0.43966242  0.80672589  0.85528110     0.21400
C157        C  0.39576049  0.77659652  0.83548664    -0.53400
C158        C  0.41181494  0.78171509  0.85659806     0.10600
C159        C  0.40725304  0.83336382  0.82478325    -0.52900
C160        C  0.42328747  0.83766439  0.84580902     0.11100
H161        H  0.45737562  0.78288428  0.79780570     0.15700
H162        H  0.45285011  0.81062417  0.87231496     0.01400
H163        H  0.37594866  0.75925043  0.83354068     0.16000
H164        H  0.39804065  0.85431991  0.81514723     0.15800
C165        C  0.44741263  0.01675661  0.82007552     0.87500
C166        C  0.43933395  0.98108885  0.82597287    -0.52700
C167        C  0.44425927  0.97253795  0.84900418     0.10500
C168        C  0.45609847  0.00049281  0.86484476     0.21400
C169        C  0.42617303  0.03669307  0.83756156    -0.53400
C170        C  0.43069406  0.02781409  0.86100573     0.10600
C171        C  0.48214249  0.02224979  0.82952467    -0.52900
C172        C  0.48706712  0.01357334  0.85268246     0.11100
H173        H  0.43156027  0.96346160  0.81265802     0.15700
H174        H  0.45993461  0.99342536  0.88373062     0.01400
H175        H  0.41078209  0.05710770  0.83264445     0.16000
H176        H  0.50179416  0.03105315  0.81826349     0.15800
C177        C  0.65954265  0.99455759  0.81615686     0.87500
C178        C  0.62592334  0.00514200  0.82572603    -0.52700
C179        C  0.61973031  0.99656178  0.84876771     0.10500
C180        C  0.64813207  0.97816696  0.86051749     0.21400
C181        C  0.68322989  0.01055050  0.83413519    -0.53400
C182        C  0.67686591  0.00204709  0.85749828     0.10600
C183        C  0.66206786  0.95797400  0.82127391    -0.52900
C184        C  0.65576052  0.94933001  0.84402290     0.11100
H185        H  0.60826282  0.01827831  0.81492039     0.15700
H186        H  0.64325795  0.97086799  0.87922222     0.01400
H187        H  0.69976247  0.03023997  0.82964136     0.16000
H188        H  0.66685521  0.93988793  0.80752491     0.15800
C189        C  0.65261775  0.76703244  0.81042098     0.87500
C190        C  0.66022728  0.80271895  0.81758877    -0.52700
C191        C  0.64746478  0.81197637  0.83892278     0.10500
C192        C  0.62768262  0.78531615  0.85128616     0.21400
C193        C  0.66404718  0.74622315  0.83151295    -0.53400
C194        C  0.65152550  0.75626526  0.85288331     0.10600
C195        C  0.61512711  0.76579790  0.81157755    -0.52900
C196        C  0.60187885  0.77544610  0.83268773     0.11100
H197        H  0.67215648  0.82042363  0.80619639     0.15700
H198        H  0.61720955  0.79314915  0.86860316     0.01400
H199        H  0.68082135  0.72582297  0.82979203     0.16000
H200        H  0.59996755  0.75967374  0.79637610     0.15800
In201      In  0.41535904  0.08514537  0.91904641     1.36900
C202        C  0.41950819  0.04763694  0.88116496     0.78600
O203        O  0.36404467  0.09860219  0.91043594    -0.59800
O204        O  0.40075223  0.13556193  0.90965462    -0.50700
C205        C  0.40083117  0.07991230  0.96505402     0.71300
O206        O  0.39443823  0.05707726  0.95053492    -0.45600
C207        C  0.47953117  0.08696657  0.92105034     0.76000
O208        O  0.41445206  0.03582610  0.90165987    -0.57400
O209        O  0.46322651  0.11141166  0.91403293    -0.47500
O210        O  0.41826124  0.07831482  0.87983540    -0.53900
C211        C  0.37091117  0.12847215  0.90726047     0.86200
O212        O  0.41372771  0.10478417  0.95573432    -0.55800
O213        O  0.46260644  0.06328094  0.92815877    -0.59100
In214      In  0.68319685  0.06412924  0.91433328     1.36900
C215        C  0.68447553  0.02373564  0.87757473     0.78600
O216        O  0.63319471  0.04793117  0.92276022    -0.59800
O217        O  0.63859435  0.09482164  0.90722102    -0.50700
C218        C  0.69399128  0.06051023  0.96096914     0.71300
O219        O  0.69882136  0.03622165  0.94742495    -0.45600
C220        C  0.73017585  0.10535048  0.90504253     0.76000
O221        O  0.68644204  0.01362527  0.89878957    -0.57400
O222        O  0.70038385  0.11290610  0.90343639    -0.47500
O223        O  0.68465771  0.05431301  0.87524321    -0.53900
C224        C  0.61941743  0.07359172  0.91552287     0.86200
O225        O  0.68424161  0.08585910  0.95039185    -0.55800
O226        O  0.73576617  0.07596108  0.91075224    -0.59100
In227      In  0.42067385  0.08907090  0.11255583     1.36900
C228        C  0.42602074  0.05489033  0.15224647     0.78600
O229        O  0.46771059  0.06808456  0.10180978    -0.59800
O230        O  0.46682528  0.11804800  0.11237857    -0.50700
C231        C  0.40284099  0.08170638  0.06733867     0.71300
O232        O  0.39945214  0.05868450  0.08226087    -0.45600
C233        C  0.37731868  0.13260840  0.12488015     0.76000
O234        O  0.41922041  0.04162348  0.13250521    -0.57400
O235        O  0.40711459  0.13933843  0.12203348    -0.47500
O236        O  0.42795161  0.08555485  0.15185948    -0.53900
C237        C  0.48349484  0.09404200  0.10520139     0.86200
O238        O  0.41408329  0.10774439  0.07600942    -0.55800
O239        O  0.36983847  0.10288432  0.12174400    -0.59100
In240      In  0.68398624  0.06949528  0.11017288     1.36900
C241        C  0.67903953  0.03391199  0.14937787     0.78600
O242        O  0.73733036  0.07680296  0.11427996    -0.59800
O243        O  0.70459739  0.11625768  0.12173649    -0.50700
C244        C  0.69602872  0.06313611  0.06389745     0.71300
O245        O  0.69891613  0.03908276  0.07802917    -0.45600
C246        C  0.62182068  0.08286608  0.10507472     0.76000
O247        O  0.68184692  0.02128952  0.12890267    -0.57400
O248        O  0.64197751  0.10424534  0.11182941    -0.47500
O249        O  0.68085188  0.06457952  0.14993038    -0.53900
C250        C  0.73374428  0.10636667  0.12042369     0.86200
O251        O  0.68819055  0.08958611  0.07385495    -0.55800
O252        O  0.63371045  0.05491218  0.10140694    -0.59100
C253        C  0.67362549  0.99244137  0.31608256     0.87500
C254        C  0.63787941  0.00226181  0.31868329    -0.52700
C255        C  0.62526426  0.99913253  0.34081257     0.10500
C256        C  0.65014331  0.98754031  0.35939012     0.21400
C257        C  0.69158551  0.01416621  0.33427434    -0.53400
C258        C  0.67942611  0.01127840  0.35716363     0.10600
C259        C  0.67663140  0.95816612  0.32732218    -0.52900
C260        C  0.66344011  0.95509764  0.34944059     0.11100
H261        H  0.62292051  0.00951674  0.30356072     0.15700
H262        H  0.63992432  0.98516466  0.37761299     0.01400
H263        H  0.71398263  0.02711430  0.33036690     0.16000
H264        H  0.68647715  0.93726820  0.31777532     0.15800
C265        C  0.63412324  0.78114001  0.31498827     0.87500
C266        C  0.64381271  0.81531415  0.32379604    -0.52700
C267        C  0.63575455  0.82190747  0.34669497     0.10500
C268        C  0.61957361  0.79298184  0.35963965     0.21400
C269        C  0.65189228  0.75831210  0.33282588    -0.53400
C270        C  0.64410220  0.76484137  0.35629859     0.10600
C271        C  0.59796900  0.77740808  0.32119823    -0.52900
C272        C  0.59014700  0.78299428  0.34441691     0.11100
H273        H  0.65583585  0.83328252  0.31257517     0.15700
H274        H  0.61366120  0.79829610  0.37851791     0.01400
H275        H  0.67077233  0.74106891  0.32797548     0.16000
H276        H  0.57979392  0.77111359  0.30789036     0.15800
C277        C  0.41326588  0.80545989  0.31514628     0.87500
C278        C  0.44650747  0.79110926  0.32216448    -0.52700
C279        C  0.45510246  0.79492196  0.34543636     0.10500
C280        C  0.42935166  0.81325153  0.35996323     0.21400
C281        C  0.38905498  0.78922067  0.33267442    -0.53400
C282        C  0.39800157  0.79328112  0.35617299     0.10600
C283        C  0.41394099  0.84114660  0.32355999    -0.52900
C284        C  0.42307853  0.84539670  0.34653042     0.11100
H285        H  0.46268029  0.78000122  0.30915318     0.15700
H286        H  0.43579447  0.81691868  0.37895347     0.01400
H287        H  0.36677411  0.77688988  0.32759502     0.16000
H288        H  0.40901541  0.86174672  0.31185811     0.15800
C289        C  0.43812703  0.02533324  0.31724716     0.87500
C290        C  0.43156695  0.98929644  0.32411395    -0.52700
C291        C  0.44256439  0.98055403  0.34613570     0.10500
C292        C  0.46031776  0.00803129  0.35932629     0.21400
C293        C  0.42359121  0.04511799  0.33798264    -0.53400
C294        C  0.43502379  0.03588123  0.36004822     0.10600
C295        C  0.47521288  0.02825286  0.32021666    -0.52900
C296        C  0.48689308  0.01910366  0.34188917     0.11100
H297        H  0.42059726  0.97138314  0.31239442     0.15700
H298        H  0.46976171  0.00041976  0.37702086     0.01400
H299        H  0.40398426  0.06265429  0.33559334     0.16000
H300        H  0.49161422  0.03358947  0.30556268     0.15800
C301        C  0.66928610  0.99471952  0.21157701     0.87500
C302        C  0.67814897  0.96165820  0.20040722    -0.52700
C303        C  0.66598493  0.95636864  0.17818893     0.10500
C304        C  0.64702914  0.98572344  0.16829012     0.21400
C305        C  0.68256044  0.01984340  0.19334033    -0.53400
C306        C  0.67106544  0.01435466  0.17052911     0.10600
C307        C  0.63214025  0.99790345  0.20897724    -0.52900
C308        C  0.62034651  0.99294406  0.18672212     0.11100
H309        H  0.69082735  0.94277075  0.21038858     0.15700
H310        H  0.63743110  0.98205036  0.15000677     0.01400
H311        H  0.69935910  0.03942832  0.19750557     0.16000
H312        H  0.61613281  0.00301163  0.22395428     0.15800
C313        C  0.63901240  0.78249955  0.20957371     0.87500
C314        C  0.60290936  0.78503034  0.20271854    -0.52700
C315        C  0.59707396  0.79323736  0.17977771     0.10500
C316        C  0.62807814  0.79714603  0.16480675     0.21400
C317        C  0.65245081  0.75667845  0.19192070    -0.53400
C318        C  0.64698117  0.76500492  0.16843288     0.10600
C319        C  0.65465101  0.81465597  0.20109889    -0.52900
C320        C  0.64864134  0.82253193  0.17793049     0.11100
H321        H  0.58318956  0.78187106  0.21545079     0.15700
H322        H  0.62309020  0.80345341  0.14591734     0.01400
H323        H  0.66486584  0.73434856  0.19691940     0.16000
H324        H  0.66775893  0.83092179  0.21301512     0.15800
C325        C  0.41645637  0.80373771  0.20985324     0.87500
C326        C  0.40971968  0.83868847  0.20131855    -0.52700
C327        C  0.41776355  0.84484888  0.17827045     0.10500
C328        C  0.43158622  0.81511626  0.16524681     0.21400
C329        C  0.39747519  0.78208041  0.19207102    -0.53400
C330        C  0.40549568  0.78848807  0.16867786     0.10600
C331        C  0.45224159  0.79682953  0.20340027    -0.52900
C332        C  0.46036630  0.80343382  0.18050078     0.11100
H333        H  0.40098783  0.85774827  0.21320898     0.15700
H334        H  0.43834433  0.81999405  0.14643257     0.01400
H335        H  0.38093392  0.76259871  0.19700058     0.16000
H336        H  0.47037602  0.78919312  0.21639532     0.15800
C337        C  0.43532025  0.02091528  0.21572066     0.87500
C338        C  0.47250023  0.01793065  0.21235165    -0.52700
C339        C  0.48212779  0.00970072  0.18988602     0.10500
C340        C  0.45365329  0.00452740  0.17256235     0.21400
C341        C  0.42429856  0.04505377  0.19628017    -0.53400
C342        C  0.43341419  0.03596499  0.17375957     0.10600
C343        C  0.42295847  0.98718690  0.20724021    -0.52900
C344        C  0.43227057  0.97888480  0.18465718     0.11100
H345        H  0.48986956  0.02076304  0.22680214     0.15700
H346        H  0.46148057  0.99780973  0.15428171     0.01400
H347        H  0.41032772  0.06702329  0.19995541     0.16000
H348        H  0.41061767  0.96966000  0.21847980     0.15800
In349      In  0.37285050  0.04274869  0.61619052     1.36900
C350        C  0.41038278  0.04051444  0.65421780     0.78600
O351        O  0.36121992  0.09531713  0.62216680    -0.59800
O352        O  0.32301715  0.06022930  0.62441709    -0.50700
C353        C  0.38234106  0.05556208  0.57027033     0.71300
O354        O  0.40481749  0.05934650  0.58544328    -0.45600
C355        C  0.36482811  0.97877608  0.61418555     0.76000
O356        O  0.42154709  0.04545178  0.63357818    -0.57400
O357        O  0.34171499  0.99778794  0.61957210    -0.47500
O358        O  0.37976300  0.04006349  0.65575788    -0.53900
C359        C  0.33114225  0.08998437  0.62519267     0.86200
O360        O  0.35575960  0.04569485  0.57886172    -0.55800
O361        O  0.39132744  0.99278424  0.60946345    -0.59100
In362      In  0.35559117  0.77458389  0.61100641     1.36900
C363        C  0.38919194  0.77719317  0.65106914     0.78600
O364        O  0.38002970  0.82171329  0.60557498    -0.59800
O365        O  0.32952267  0.82244337  0.61462715    -0.50700
C366        C  0.36008248  0.76368446  0.56462712     0.71300
O367        O  0.38230211  0.75398065  0.57874259    -0.45600
C368        C  0.31114440  0.72948139  0.61910341     0.76000
O369        O  0.40333806  0.77303440  0.63122763    -0.57400
O370        O  0.30484773  0.75978335  0.61932444    -0.47500
O371        O  0.35852545  0.77572731  0.65036212    -0.53900
C372        C  0.35523504  0.83860658  0.61055111     0.86200
O373        O  0.33700483  0.77894987  0.57442508    -0.55800
O374        O  0.34086277  0.72243328  0.61556128    -0.59100
In375      In  0.38159114  0.04583301  0.42169901     1.36900
C376        C  0.41744998  0.04354783  0.38229405     0.78600
O377        O  0.39623703  0.99432872  0.42652807    -0.59800
O378        O  0.34660749  0.00385452  0.41827061    -0.50700
C379        C  0.38873600  0.05727720  0.46808662     0.71300
O380        O  0.41101862  0.06502690  0.45349595    -0.45600
C381        C  0.34073842  0.09357929  0.41264318     0.76000
O382        O  0.43006519  0.04096585  0.40277903    -0.57400
O383        O  0.33273870  0.06378089  0.41199257    -0.47500
O384        O  0.38746499  0.04995696  0.38227988    -0.53900
C385        C  0.36827108  0.98275032  0.42265069     0.86200
O386        O  0.36437333  0.04377470  0.45875016    -0.55800
O387        O  0.37035556  0.09890255  0.41766390    -0.59100
In388      In  0.34519723  0.77965208  0.41674765     1.36900
C389        C  0.37830451  0.78383077  0.37684230     0.78600
O390        O  0.33559696  0.72737289  0.41037024    -0.59800
O391        O  0.29591671  0.76133374  0.40774034    -0.50700
C392        C  0.35227106  0.76518759  0.46240837     0.71300
O393        O  0.37483284  0.75998721  0.44743495    -0.45600
C394        C  0.34745996  0.84334697  0.42188454     0.76000
O395        O  0.39126373  0.77472637  0.39622850    -0.57400
O396        O  0.32100099  0.82921226  0.41631150    -0.47500
O397        O  0.34780670  0.78778151  0.37740219    -0.53900
C398        C  0.30543240  0.73183230  0.40697100     0.86200
O399        O  0.32639663  0.77696342  0.45367337    -0.55800
O400        O  0.37116491  0.82446394  0.42572171    -0.59100
In401      In  0.86823299  0.25231801  0.91825589     1.36900
C402        C  0.90793253  0.25808687  0.88123461     0.78600
O403        O  0.85788677  0.19947962  0.91206354    -0.59800
O404        O  0.81939529  0.23429201  0.90884418    -0.50700
C405        C  0.87511383  0.23885151  0.96457197     0.71300
O406        O  0.89764905  0.23223312  0.94988184    -0.45600
C407        C  0.85219505  0.31482796  0.92019202     0.76000
O408        O  0.91792806  0.25953483  0.90248643    -0.57400
O409        O  0.83462814  0.29415163  0.90960668    -0.47500
O410        O  0.87837912  0.25074778  0.87898577    -0.53900
C411        C  0.82801270  0.20469738  0.90787910     0.86200
O412        O  0.85014510  0.25124115  0.95513222    -0.55800
O413        O  0.87756056  0.30332230  0.92967252    -0.59100
In414      In  0.84845393  0.51794461  0.91643985     1.36900
C415        C  0.88698640  0.51574316  0.87895724     0.78600
O416        O  0.86652807  0.46896085  0.92636409    -0.59800
O417        O  0.81975241  0.47196919  0.90993480    -0.50700
C418        C  0.85248082  0.53080331  0.96278354     0.71300
O419        O  0.87547375  0.53825369  0.94870024    -0.45600
C420        C  0.80789615  0.56578878  0.90669480     0.76000
O421        O  0.89791697  0.51879359  0.89991442    -0.57400
O422        O  0.79915589  0.53614883  0.90720856    -0.47500
O423        O  0.85642869  0.51647309  0.87709858    -0.53900
C424        C  0.84172124  0.45403464  0.91885652     0.86200
O425        O  0.82848709  0.51720154  0.95287949    -0.55800
O426        O  0.83790871  0.57060252  0.91043996    -0.59100
In427      In  0.87478862  0.25060909  0.11456356     1.36900
C428        C  0.91195685  0.25291264  0.15285809     0.78600
O429        O  0.89077111  0.30146711  0.10856738    -0.59800
O430        O  0.84239617  0.29419622  0.12089051    -0.50700
C431        C  0.87956553  0.24049187  0.06776274     0.71300
O432        O  0.90247693  0.23214215  0.08169853    -0.45600
C433        C  0.83442155  0.20248621  0.12267154     0.76000
O434        O  0.92383646  0.25281573  0.13206420    -0.57400
O435        O  0.82607452  0.23217975  0.12401643    -0.47500
O436        O  0.88176772  0.24782116  0.15397127    -0.53900
C437        C  0.86416903  0.31434493  0.11477527     0.86200
O438        O  0.85580951  0.25392230  0.07805507    -0.55800
O439        O  0.86413139  0.19748835  0.11779979    -0.59100
In440      In  0.84620977  0.51895465  0.11181921     1.36900
C441        C  0.88373790  0.51878619  0.15007624     0.78600
O442        O  0.83202185  0.57098292  0.11572033    -0.59800
O443        O  0.79537600  0.53455923  0.12021576    -0.50700
C444        C  0.85102153  0.53059396  0.06545048     0.71300
O445        O  0.87332165  0.53911718  0.07980569    -0.45600
C446        C  0.84735081  0.45452573  0.11076930     0.76000
O447        O  0.89494168  0.52435304  0.12948229    -0.57400
O448        O  0.82195236  0.46996332  0.11700816    -0.47500
O449        O  0.85309222  0.51734362  0.15136796    -0.53900
C450        C  0.80221575  0.56471596  0.11922802     0.86200
O451        O  0.82719606  0.51626905  0.07506480    -0.55800
O452        O  0.87062014  0.47236648  0.10412616    -0.59100
In453      In  0.16038863  0.59044409  0.61351157     1.36900
C454        C  0.16052440  0.55420787  0.65255825     0.78600
O455        O  0.21313604  0.60301659  0.61616574    -0.59800
O456        O  0.17818359  0.64082947  0.62163738    -0.50700
C457        C  0.16858237  0.58491964  0.56676889     0.71300
O458        O  0.17806522  0.56260306  0.58088837    -0.45600
C459        C  0.09601242  0.59119249  0.61227831     0.76000
O460        O  0.16593986  0.54206444  0.63219720    -0.57400
O461        O  0.11207228  0.61640488  0.61813995    -0.47500
O462        O  0.15849917  0.58496141  0.65304694    -0.53900
C463        C  0.20800988  0.63301795  0.62017666     0.86200
O464        O  0.15540706  0.60908786  0.57687267    -0.55800
O465        O  0.11325175  0.56676840  0.60693286    -0.59100
In466      In  0.89195439  0.56859132  0.61272203     1.36900
C467        C  0.89640674  0.53045924  0.65054501     0.78600
O468        O  0.94244602  0.55266838  0.60672765    -0.59800
O469        O  0.93543638  0.60169269  0.61809285    -0.50700
C470        C  0.88423896  0.56469438  0.56568734     0.71300
O471        O  0.87967463  0.54023482  0.57917043    -0.45600
C472        C  0.83968151  0.60302710  0.62256073     0.76000
O473        O  0.89361412  0.51897258  0.62970149    -0.57400
O474        O  0.86828156  0.61433637  0.62440184    -0.47500
O475        O  0.89339986  0.56101405  0.65211180    -0.53900
C476        C  0.95543959  0.57942960  0.61238737     0.86200
O477        O  0.89177948  0.59063180  0.57651286    -0.55800
O478        O  0.83796288  0.57350058  0.61595435    -0.59100
In479      In  0.16316356  0.58850471  0.41669879     1.36900
C480        C  0.16032416  0.55227143  0.37807654     0.78600
O481        O  0.11492302  0.56862845  0.42442207    -0.59800
O482        O  0.11739848  0.61718159  0.41057882    -0.50700
C483        C  0.17168818  0.58417475  0.46350483     0.71300
O484        O  0.18061651  0.56119641  0.44976418    -0.45600
C485        C  0.20996609  0.63007531  0.40785728     0.76000
O486        O  0.16505737  0.53972673  0.39841680    -0.57400
O487        O  0.18019752  0.63806212  0.40786138    -0.47500
O488        O  0.16034026  0.58301755  0.37747525    -0.53900
C489        C  0.09977295  0.59389237  0.41785124     0.86200
O490        O  0.15946920  0.60846870  0.45294895    -0.55800
O491        O  0.21571801  0.60017477  0.41196640    -0.59100
In492      In  0.89815016  0.57235050  0.41571172     1.36900
C493        C  0.90279499  0.53310603  0.37831968     0.78600
O494        O  0.84478118  0.58001215  0.41160793    -0.59800
O495        O  0.87703333  0.62029119  0.40617366    -0.50700
C496        C  0.88819333  0.56590769  0.46248653     0.71300
O497        O  0.88302107  0.54249698  0.44819403    -0.45600
C498        C  0.96072206  0.58566935  0.41678436     0.76000
O499        O  0.90246856  0.52251051  0.39945287    -0.57400
O500        O  0.94046570  0.60617358  0.40873619    -0.47500
O501        O  0.89756112  0.56328486  0.37626173    -0.53900
C502        C  0.84797144  0.61011027  0.40694953     0.86200
O503        O  0.89788074  0.59180990  0.45262924    -0.55800
O504        O  0.94859192  0.55914244  0.42380605    -0.59100
C505        C  0.94633409  0.27761708  0.71425279     0.87500
C506        C  0.93332184  0.31139115  0.70716520    -0.52700
C507        C  0.93736154  0.31972266  0.68380375     0.10500
C508        C  0.95530433  0.29327832  0.66939021     0.21400
C509        C  0.92974303  0.25382033  0.69664769    -0.53400
C510        C  0.93434324  0.26229804  0.67312908     0.10600
C511        C  0.98195001  0.27710482  0.70612245    -0.52900
C512        C  0.98711758  0.28613895  0.68324553     0.11100
H513        H  0.92238160  0.32782337  0.72008867     0.15700
H514        H  0.95940342  0.29945007  0.65039961     0.01400
H515        H  0.91730614  0.23157515  0.70172848     0.16000
H516        H  0.00201351  0.27076570  0.71792032     0.15800
C517        C  0.16653322  0.29255747  0.71883472     0.87500
C518        C  0.13078279  0.28647962  0.71120150    -0.52700
C519        C  0.12317880  0.29722498  0.68886326     0.10500
C520        C  0.15167107  0.31404528  0.67613786     0.21400
C521        C  0.18699072  0.27715323  0.69882003    -0.53400
C522        C  0.17912844  0.28844259  0.67648520     0.10600
C523        C  0.17023484  0.32969154  0.71548181    -0.52900
C524        C  0.16265843  0.34082235  0.69331550     0.11100
H525        H  0.11223497  0.27616392  0.72267916     0.15700
H526        H  0.14511751  0.32320448  0.65813703     0.01400
H527        H  0.20430584  0.25750647  0.70186776     0.16000
H528        H  0.17515673  0.34646441  0.73001608     0.15800
C529        C  0.13510247  0.52602762  0.71475648     0.87500
C530        C  0.14653932  0.49088398  0.71130120    -0.52700
C531        C  0.14321798  0.47884837  0.68902447     0.10500
C532        C  0.13013912  0.50391239  0.67104686     0.21400
C533        C  0.15548618  0.54570724  0.69666382    -0.53400
C534        C  0.15265960  0.53413740  0.67360670     0.10600
C535        C  0.10052332  0.52783482  0.70406212    -0.52900
C536        C  0.09758991  0.51566820  0.68163041     0.11100
H537        H  0.15439127  0.47552749  0.72607093     0.15700
H538        H  0.12772734  0.49422724  0.65266428     0.01400
H539        H  0.16793751  0.56831930  0.70086120     0.16000
H540        H  0.07955415  0.53672435  0.71396546     0.15800
C541        C  0.92292660  0.49893033  0.71206418     0.87500
C542        C  0.95759432  0.50579582  0.70316408    -0.52700
C543        C  0.96340840  0.49742315  0.68023369     0.10500
C544        C  0.93324159  0.48386268  0.66725731     0.21400
C545        C  0.90153458  0.51864512  0.69443453    -0.53400
C546        C  0.90711396  0.51050666  0.67091402     0.10600
C547        C  0.91616056  0.46308898  0.70562797    -0.52900
C548        C  0.92130505  0.45492168  0.68234968     0.11100
H549        H  0.97656699  0.51603288  0.71443154     0.15700
H550        H  0.93790701  0.47797246  0.64829274     0.01400
H551        H  0.88558649  0.53857358  0.69941727     0.16000
H552        H  0.90910729  0.44522016  0.71896713     0.15800
C553        C  0.13730588  0.52244170  0.81950058     0.87500
C554        C  0.10406346  0.53158960  0.83005844    -0.52700
C555        C  0.09894991  0.52125581  0.85277731     0.10500
C556        C  0.12821030  0.50334791  0.86358349     0.21400
C557        C  0.16192106  0.53749304  0.83725123    -0.53400
C558        C  0.15647109  0.52768415  0.86043830     0.10600
C559        C  0.14100714  0.48547834  0.82360978    -0.52900
C560        C  0.13574594  0.47526891  0.84626479     0.11100
H561        H  0.08505069  0.54324242  0.81956834     0.15700
H562        H  0.12425622  0.49505086  0.88218484     0.01400
H563        H  0.18136554  0.55411295  0.83253191     0.16000
H564        H  0.14623371  0.46835345  0.80930612     0.15800
C565        C  0.92658626  0.50199115  0.81755286     0.87500
C566        C  0.92730563  0.46533385  0.82363431    -0.52700
C567        C  0.93487571  0.45816129  0.84653868     0.10500
C568        C  0.93944307  0.48837435  0.86224407     0.21400
C569        C  0.90097334  0.51568613  0.83517395    -0.53400
C570        C  0.90824900  0.50860052  0.85862553     0.10600
C571        C  0.95912836  0.51569271  0.82678988    -0.52900
C572        C  0.96590047  0.50841438  0.84997060     0.11100
H573        H  0.92391993  0.44624191  0.81040555     0.15700
H574        H  0.94506577  0.48228374  0.88107823     0.01400
H575        H  0.87904130  0.52864048  0.83010870     0.16000
H576        H  0.97631401  0.52850250  0.81541733     0.15800
C577        C  0.94539892  0.27641503  0.81967905     0.87500
C578        C  0.97950521  0.26742128  0.82884616    -0.52700
C579        C  0.98558960  0.27581543  0.85187853     0.10500
C580        C  0.95650973  0.29197347  0.86427404     0.21400
C581        C  0.92213473  0.25926410  0.83741063    -0.53400
C582        C  0.92839067  0.26748785  0.86086270     0.10600
C583        C  0.94078874  0.31273257  0.82562251    -0.52900
C584        C  0.94734268  0.32109709  0.84844870     0.11100
H585        H  0.99820215  0.25721163  0.81732634     0.15700
H586        H  0.96131714  0.29896315  0.88304608     0.01400
H587        H  0.90224262  0.24332242  0.83237391     0.16000
H588        H  0.93447096  0.33099529  0.81231324     0.15800
C589        C  0.16178590  0.28948059  0.82053649     0.87500
C590        C  0.15815252  0.32671251  0.82364442    -0.52700
C591        C  0.15007723  0.33657131  0.84609252     0.10500
C592        C  0.14579970  0.30811348  0.86374029     0.21400
C593        C  0.18639831  0.27922789  0.83978076    -0.53400
C594        C  0.17773665  0.28854721  0.86233598     0.10600
C595        C  0.12863172  0.27658943  0.82936882    -0.52900
C596        C  0.12037103  0.28594254  0.85194836     0.11100
H597        H  0.16065385  0.34394617  0.80904578     0.15700
H598        H  0.13930359  0.31608857  0.88202334     0.01400
H599        H  0.20864946  0.26586247  0.83591066     0.16000
H600        H  0.11105022  0.26436981  0.81813379     0.15800
In601      In  0.23582728  0.27843789  0.92145846     1.36900
C602        C  0.19823527  0.28249076  0.88334721     0.78600
O603        O  0.21572474  0.32609634  0.93168815    -0.59800
O604        O  0.26395698  0.32533641  0.91768558    -0.50700
C605        C  0.23219923  0.26470173  0.96772381     0.71300
O606        O  0.20832660  0.25951350  0.95385790    -0.45600
C607        C  0.27593312  0.23098451  0.90935199     0.76000
O608        O  0.18670367  0.27604489  0.90372843    -0.57400
O609        O  0.28473580  0.26055315  0.91076054    -0.47500
O610        O  0.22880567  0.28483730  0.88241620    -0.53900
C611        C  0.24050265  0.34222952  0.92563507     0.86200
O612        O  0.25716184  0.27604753  0.95757432    -0.55800
O613        O  0.24610983  0.22596568  0.91378918    -0.59100
In614      In  0.21366388  0.54428524  0.91894002     1.36900
C615        C  0.17623022  0.53755614  0.88099069     0.78600
O616        O  0.22304329  0.59743518  0.91353859    -0.59800
O617        O  0.26130495  0.56293757  0.90755284    -0.50700
C618        C  0.20772851  0.55788504  0.96514010     0.71300
O619        O  0.18439763  0.56315366  0.95079643    -0.45600
C620        C  0.22711712  0.48161717  0.92283871     0.76000
O621        O  0.16471779  0.53894596  0.90184879    -0.57400
O622        O  0.24792528  0.50180977  0.91526695    -0.47500
O623        O  0.20634288  0.54272213  0.87942596    -0.53900
C624        C  0.25260125  0.59255525  0.90807065     0.86200
O625        O  0.23298361  0.54647843  0.95547120    -0.55800
O626        O  0.19988349  0.49380647  0.92819854    -0.59100
In627      In  0.23732858  0.27670219  0.11657658     1.36900
C628        C  0.19973095  0.28023456  0.15447513     0.78600
O629        O  0.25049656  0.22546519  0.12531125    -0.59800
O630        O  0.28722357  0.26240588  0.12682442    -0.50700
C631        C  0.23381536  0.26189866  0.07056290     0.71300
O632        O  0.21062013  0.25539150  0.08471642    -0.45600
C633        C  0.23850381  0.34030141  0.11099664     0.76000
O634        O  0.18868915  0.27248447  0.13420069    -0.57400
O635        O  0.26312620  0.32489021  0.11866962    -0.47500
O636        O  0.23019017  0.28377265  0.15562462    -0.53900
C637        C  0.28019902  0.23241964  0.12867505     0.86200
O638        O  0.25841286  0.27450209  0.08037403    -0.55800
O639        O  0.21419259  0.32276688  0.10614279    -0.59100
In640      In  0.21203689  0.54254366  0.11389302     1.36900
C641        C  0.17366838  0.53493674  0.15111747     0.78600
O642        O  0.19776802  0.49237687  0.10472713    -0.59800
O643        O  0.24638924  0.49997041  0.11652004    -0.50700
C644        C  0.20727252  0.55773297  0.06795450     0.71300
O645        O  0.18342388  0.56191448  0.08199070    -0.45600
C646        C  0.24969672  0.59097679  0.12674676     0.76000
O647        O  0.16235791  0.53660785  0.13020812    -0.57400
O648        O  0.25934015  0.56162765  0.12624650    -0.47500
O649        O  0.20388201  0.53952507  0.15290608    -0.53900
C650        C  0.22506834  0.47990913  0.10951465     0.86200
O651        O  0.23260554  0.54685346  0.07784759    -0.55800
O652        O  0.21995427  0.59525682  0.12153548    -0.59100
C653        C  0.92016469  0.49512468  0.31675576     0.87500
C654        C  0.91051763  0.46112978  0.32589594    -0.52700
C655        C  0.91877815  0.45477361  0.34893759     0.10500
C656        C  0.93573939  0.48360570  0.36127363     0.21400
C657        C  0.90377084  0.51887545  0.33456615    -0.53400
C658        C  0.91190216  0.51240258  0.35794904     0.10600
C659        C  0.95657522  0.49868216  0.32248979    -0.52900
C660        C  0.96492894  0.49217348  0.34531227     0.11100
H661        H  0.89979362  0.44273639  0.31435340     0.15700
H662        H  0.94268279  0.47883027  0.38005665     0.01400
H663        H  0.88827187  0.53924095  0.32966233     0.16000
H664        H  0.97474321  0.50505190  0.30917702     0.15800
C665        C  0.14519937  0.52098619  0.31479198     0.87500
C666        C  0.10855211  0.51814190  0.32042704    -0.52700
C667        C  0.10166074  0.50840693  0.34302271     0.10500
C668        C  0.13211065  0.50151474  0.35820074     0.21400
C669        C  0.15898121  0.54339785  0.33418335    -0.53400
C670        C  0.15251707  0.53292736  0.35683649     0.10600
C671        C  0.15793771  0.48652535  0.32092776    -0.52900
C672        C  0.15137301  0.47633064  0.34364437     0.11100
H673        H  0.08941228  0.52173937  0.30732586     0.15700
H674        H  0.12643927  0.49386765  0.37668701     0.01400
H675        H  0.17209693  0.56581303  0.33034615     0.16000
H676        H  0.16806456  0.47001386  0.30778933     0.15800
C677        C  0.93627455  0.27927010  0.31900167     0.87500
C678        C  0.97259438  0.28641902  0.32378346    -0.52700
C679        C  0.97987286  0.29398762  0.34683669     0.10500
C680        C  0.94996539  0.29482405  0.36324123     0.21400
C681        C  0.92730682  0.25265975  0.33729956    -0.53400
C682        C  0.93411074  0.26105918  0.36041438     0.10600
C683        C  0.91951340  0.31066823  0.32800918    -0.52900
C684        C  0.92659164  0.31899718  0.35105187     0.11100
H685        H  0.99121120  0.28558835  0.31005723     0.15700
H686        H  0.95589343  0.30103483  0.38198372     0.01400
H687        H  0.91694037  0.22921582  0.33237581     0.16000
H688        H  0.90726500  0.32778782  0.31634764     0.15800
C689        C  0.15660791  0.29052390  0.32028049     0.87500
C690        C  0.16155065  0.32735799  0.32377627    -0.52700
C691        C  0.15681488  0.33833231  0.34634019     0.10500
C692        C  0.14663417  0.31152156  0.36375480     0.21400
C693        C  0.17948093  0.27462081  0.33870791    -0.53400
C694        C  0.17395393  0.28557638  0.36161422     0.10600
C695        C  0.12265658  0.28280077  0.33045833    -0.52900
C696        C  0.11658007  0.29533286  0.35237959     0.11100
H697        H  0.16768432  0.34368753  0.30919007     0.15700
H698        H  0.14222309  0.32025634  0.38218431     0.01400
H699        H  0.19611585  0.25475924  0.33472262     0.16000
H700        H  0.10351098  0.27118258  0.32010816     0.15800
C701        C  0.94023408  0.27671467  0.21564962     0.87500
C702        C  0.93136011  0.31208296  0.20849435    -0.52700
C703        C  0.93757044  0.32004885  0.18522618     0.10500
C704        C  0.95437564  0.29223356  0.17146161     0.21400
C705        C  0.92292745  0.25538778  0.19686079    -0.53400
C706        C  0.93068445  0.26345459  0.17378728     0.10600
C707        C  0.97672195  0.27470922  0.20944468    -0.52900
C708        C  0.98395897  0.28235749  0.18648520     0.11100
H709        H  0.92130619  0.32974154  0.22087507     0.15700
H710        H  0.96040295  0.29843488  0.15275209     0.01400
H711        H  0.90477266  0.23712899  0.20134707     0.16000
H712        H  0.99583079  0.26927715  0.22218611     0.15800
C713        C  0.15865827  0.28862521  0.21560295     0.87500
C714        C  0.12717835  0.27459497  0.20474728    -0.52700
C715        C  0.12014047  0.28509946  0.18232449     0.10500
C716        C  0.14670519  0.30709854  0.17174107     0.21400
C717        C  0.18526629  0.27779469  0.19791092    -0.53400
C718        C  0.17844098  0.28708493  0.17482340     0.10600
C719        C  0.15680827  0.32572717  0.21187448    -0.52900
C720        C  0.15002318  0.33558411  0.18938916     0.11100
H721        H  0.11001625  0.26017701  0.21507569     0.15700
H722        H  0.14154927  0.31505981  0.15321022     0.01400
H723        H  0.20686148  0.26394290  0.20258953     0.16000
H724        H  0.15927106  0.34309514  0.22642144     0.15800
C725        C  0.13860222  0.52363830  0.21363373     0.87500
C726        C  0.14183909  0.48636851  0.21099628    -0.52700
C727        C  0.13583057  0.47460528  0.18879355     0.10500
C728        C  0.12606165  0.50126176  0.17084403     0.21400
C729        C  0.16070007  0.53776273  0.19424656    -0.53400
C730        C  0.15381775  0.52647423  0.17189628     0.10600
C731        C  0.10347212  0.53021463  0.20488655    -0.52900
C732        C  0.09687474  0.51848023  0.18256402     0.11100
H733        H  0.14760147  0.47021547  0.22577639     0.15700
H734        H  0.12092963  0.49165487  0.15273763     0.01400
H735        H  0.18034260  0.55479915  0.19792125     0.16000
H736        H  0.08406002  0.53942132  0.21609869     0.15800
C737        C  0.91866585  0.49589872  0.21144429     0.87500
C738        C  0.95346737  0.50505769  0.20445080    -0.52700
C739        C  0.96123510  0.49943581  0.18136774     0.10500
C740        C  0.93300312  0.48515745  0.16657247     0.21400
C741        C  0.89693424  0.51533784  0.19385724    -0.53400
C742        C  0.90478978  0.50972628  0.17028668     0.10600
C743        C  0.91405262  0.46055164  0.20318197    -0.52900
C744        C  0.92133372  0.45431903  0.17998165     0.11100
H745        H  0.97111172  0.51457424  0.21712865     0.15700
H746        H  0.93922129  0.48061811  0.14763116     0.01400
H747        H  0.87614707  0.53003468  0.19895289     0.16000
H748        H  0.90606073  0.44151425  0.21533718     0.15800
In749      In  0.19020077  0.23640701  0.61502065     1.36900
C750        C  0.18857749  0.27154131  0.65445461     0.78600
O751        O  0.13928117  0.25387154  0.61190809    -0.59800
O752        O  0.14718673  0.20313812  0.61751032    -0.50700
C753        C  0.20282625  0.24577962  0.56911283     0.71300
O754        O  0.21060541  0.26703718  0.58448268    -0.45600
C755        C  0.23505037  0.19229934  0.62382573     0.76000
O756        O  0.18570405  0.28441959  0.63410119    -0.57400
O757        O  0.20488243  0.18620568  0.62463766    -0.47500
O758        O  0.19623033  0.24177901  0.65435325    -0.53900
C759        C  0.12687565  0.22601845  0.61479460     0.86200
O760        O  0.18842205  0.22115062  0.57737629    -0.55800
O761        O  0.24219511  0.22165964  0.61891994    -0.59100
In762      In  0.92458455  0.20368547  0.61455446     1.36900
C763        C  0.92575049  0.24096501  0.65294804     0.78600
O764        O  0.87399323  0.18655576  0.62149402    -0.59800
O765        O  0.91296901  0.15198911  0.62306656    -0.50700
C766        C  0.91297469  0.20695090  0.56802799     0.71300
O767        O  0.90392651  0.22955590  0.58202231    -0.45600
C768        C  0.98812685  0.20762844  0.61287477     0.76000
O769        O  0.91696873  0.25196406  0.63284162    -0.57400
O770        O  0.97394580  0.18129787  0.61856536    -0.47500
O771        O  0.93001411  0.21046345  0.65382279    -0.53900
C772        C  0.88257774  0.15701704  0.62417333     0.86200
O773        O  0.92720075  0.18335317  0.57806661    -0.55800
O774        O  0.96955281  0.23076752  0.60691781    -0.59100
In775      In  0.19379582  0.23263557  0.42172064     1.36900
C776        C  0.18606052  0.26846721  0.38287337     0.78600
O777        O  0.24695625  0.22263847  0.41642081    -0.59800
O778        O  0.21239375  0.18418877  0.41187995    -0.50700
C779        C  0.20796296  0.24261895  0.46728404     0.71300
O780        O  0.21138603  0.26520221  0.45202947    -0.45600
C781        C  0.13165168  0.21644800  0.42609347     0.76000
O782        O  0.18537879  0.28089041  0.40345056    -0.57400
O783        O  0.15264919  0.19668907  0.41821265    -0.47500
O784        O  0.19435913  0.23892051  0.38221634    -0.53900
C785        C  0.24196839  0.19271146  0.41189429     0.86200
O786        O  0.19839004  0.21579862  0.45884204    -0.55800
O787        O  0.14275160  0.24410252  0.43158585    -0.59100
In788      In  0.92922807  0.20021379  0.41907684     1.36900
C789        C  0.92989032  0.23897053  0.38099077     0.78600
O790        O  0.97553108  0.22239974  0.43039338    -0.59800
O791        O  0.97760471  0.17407865  0.41655548    -0.50700
C792        C  0.91500125  0.20464554  0.46524366     0.71300
O793        O  0.91069916  0.22845380  0.45111523    -0.45600
C794        C  0.88274004  0.15803839  0.40874655     0.76000
O795        O  0.92265601  0.24925134  0.40156099    -0.57400
O796        O  0.91260888  0.15014087  0.40867815    -0.47500
O797        O  0.93511075  0.20864470  0.37971856    -0.53900
C798        C  0.99301179  0.19815433  0.42513578     0.86200
O799        O  0.92547993  0.17899004  0.45540618    -0.55800
O800        O  0.87724934  0.18787603  0.41305869    -0.59100
C801        C  0.08305202  0.18169814  0.41632680     0.24700
C802        C  0.09673497  0.20856301  0.42835520    -0.23500
C803        C  0.07631142  0.22926378  0.44163003     0.19600
C804        C  0.04275286  0.22443399  0.44173007     0.24600
C805        C  0.02872717  0.19917058  0.42817623    -0.23400
C806        C  0.04923238  0.17711700  0.41615303     0.19500
F807        F  0.03655853  0.15212250  0.40326231    -0.13400
F808        F  0.10215024  0.16081863  0.40374184    -0.15700
F809        F  0.02394831  0.24511129  0.45475013    -0.15700
F810        F  0.08867057  0.25477904  0.45417722    -0.13400
C811        C  0.90574083  0.17778171  0.52940468     0.24700
C812        C  0.90844558  0.20749602  0.54183458    -0.23500
C813        C  0.91014287  0.23680974  0.52879735     0.19600
C814        C  0.91073469  0.23621998  0.50376886     0.24600
C815        C  0.90964578  0.20627858  0.49139303    -0.23400
C816        C  0.90633514  0.17716007  0.50454630     0.19500
F817        F  0.90439629  0.14779019  0.49337412    -0.13400
F818        F  0.90313521  0.14904877  0.54137738    -0.15700
F819        F  0.91447190  0.26475381  0.49175513    -0.15700
F820        F  0.91351949  0.26581538  0.54024527    -0.13400
C821        C  0.20463417  0.27661702  0.53017030     0.24700
C822        C  0.21011906  0.24793892  0.54341845    -0.23500
C823        C  0.21925862  0.21922570  0.53147011     0.19600
C824        C  0.22082109  0.21842758  0.50672447     0.24600
C825        C  0.21319471  0.24635509  0.49321868    -0.23400
C826        C  0.20627317  0.27585833  0.50513743     0.19500
F827        F  0.19860574  0.30317178  0.49259825    -0.13400
F828        F  0.19513257  0.30451077  0.54125975    -0.15700
F829        F  0.22860414  0.18976968  0.49591091    -0.15700
F830        F  0.22563197  0.19138715  0.54382754    -0.13400
C831        C  0.07031189  0.24791484  0.61645717     0.24700
C832        C  0.09142231  0.22090201  0.61487567    -0.23500
C833        C  0.07826776  0.18924528  0.61313289     0.19600
C834        C  0.04455562  0.18474680  0.61275676     0.24600
C835        C  0.02359232  0.21184567  0.61367202    -0.23400
C836        C  0.03674296  0.24344780  0.61569074     0.19500
F837        F  0.01713071  0.27011639  0.61755020    -0.13400
F838        F  0.08203032  0.27874115  0.61911625    -0.15700
F839        F  0.03248074  0.15396730  0.61093619    -0.15700
F840        F  0.09793824  0.16266134  0.61127666    -0.13400
C841        C  0.04982128  0.48419918  0.16961236     0.24700
C842        C  0.06278221  0.51538761  0.17405929    -0.23500
C843        C  0.04149054  0.54227757  0.17530336     0.19600
C844        C  0.00771491  0.53747245  0.17465882     0.24600
C845        C  0.99484229  0.50567751  0.17309349    -0.23400
C846        C  0.01618214  0.47926338  0.16997965     0.19500
F847        F  0.00494696  0.44821508  0.17089824    -0.13400
F848        F  0.06948629  0.45771127  0.16782777    -0.15700
F849        F  0.98758558  0.56343025  0.17804640    -0.15700
F850        F  0.05339695  0.57283248  0.17891987    -0.13400
C851        C  0.11876621  0.38572919  0.19929664     0.24700
C852        C  0.14205296  0.37039150  0.18470060    -0.23500
C853        C  0.15987667  0.38936160  0.16839587     0.19600
C854        C  0.15651496  0.42364328  0.16836471     0.24600
C855        C  0.13503786  0.43889382  0.18444695    -0.23400
C856        C  0.11526734  0.41950443  0.19912561     0.19500
F857        F  0.09344022  0.43353249  0.21417734    -0.13400
F858        F  0.10015183  0.36791908  0.21450388    -0.15700
F859        F  0.17593782  0.44195978  0.15408466    -0.15700
F860        F  0.18215165  0.37501471  0.15391101    -0.13400
C861        C  0.94290457  0.40479111  0.15772523     0.24700
C862        C  0.91791349  0.42017530  0.17068395    -0.23500
C863        C  0.89312805  0.40025533  0.18017384     0.19600
C864        C  0.89808200  0.36672420  0.18272682     0.24600
C865        C  0.92740978  0.35234012  0.17504770    -0.23400
C866        C  0.94764203  0.37081863  0.15985479     0.19500
F867        F  0.97281237  0.35673898  0.14811430    -0.13400
F868        F  0.96355484  0.42248054  0.14405545    -0.15700
F869        F  0.87508102  0.34870821  0.19410453    -0.15700
F870        F  0.86563397  0.41378850  0.18937577    -0.13400
C871        C  0.03420092  0.31168884  0.17406382     0.24700
C872        C  0.01785613  0.28213195  0.17788230    -0.23500
C873        C  0.03540637  0.25267306  0.17726004     0.19600
C874        C  0.06937439  0.25312111  0.17525137     0.24600
C875        C  0.08606823  0.28304846  0.17366984    -0.23400
C876        C  0.06793469  0.31199807  0.17095792     0.19500
F877        F  0.08290800  0.34114814  0.16802106    -0.13400
F878        F  0.01829541  0.34055060  0.17639740    -0.15700
F879        F  0.08622825  0.22464140  0.17703457    -0.15700
F880        F  0.01989641  0.22375448  0.18067623    -0.13400
C881        C  0.13221992  0.29409080  0.25526675     0.24700
C882        C  0.15948845  0.28237924  0.24256940    -0.23500
C883        C  0.18614599  0.27012808  0.25588825     0.19600
C884        C  0.18530131  0.27032858  0.28116605     0.24600
C885        C  0.15800748  0.28321822  0.29347333    -0.23400
C886        C  0.13202153  0.29561945  0.27969956     0.19500
F887        F  0.10676141  0.31212671  0.28973911    -0.13400
F888        F  0.10614989  0.30742920  0.24385031    -0.15700
F889        F  0.21215552  0.26040794  0.29324947    -0.15700
F890        F  0.21369073  0.25989555  0.24486117    -0.13400
C891        C  0.95149939  0.24886585  0.28068869     0.24700
C892        C  0.92994845  0.27020263  0.29263203    -0.23500
C893        C  0.90457709  0.28414166  0.27883072     0.19600
C894        C  0.90572917  0.28318657  0.25382914     0.24600
C895        C  0.93222325  0.26839006  0.24191268    -0.23400
C896        C  0.95249344  0.24778747  0.25571167     0.19500
F897        F  0.97359990  0.22672437  0.24518409    -0.13400
F898        F  0.97301116  0.23033453  0.29317955    -0.15700
F899        F  0.88100626  0.29714240  0.24135062    -0.15700
F900        F  0.87812249  0.29801349  0.28921267    -0.13400
C901        C  0.06398312  0.28051054  0.37236885     0.24700
C902        C  0.08217671  0.30247228  0.35849598    -0.23500
C903        C  0.06564459  0.32594742  0.34470165     0.19600
C904        C  0.03179662  0.32489934  0.34249404     0.24600
C905        C  0.01379389  0.30079495  0.35443012    -0.23400
C906        C  0.02979687  0.28001150  0.37061953     0.19500
F907        F  0.01270916  0.25708682  0.38281423    -0.13400
F908        F  0.07939506  0.25761044  0.38574906    -0.15700
F909        F  0.01679620  0.34586233  0.32725519    -0.15700
F910        F  0.08260804  0.34753697  0.33117023    -0.13400
C911        C  0.17681766  0.51881130  0.27509798     0.24700
C912        C  0.15176056  0.53241260  0.28917777    -0.23500
C913        C  0.13022759  0.55442793  0.27789242     0.19600
C914        C  0.12754396  0.55491322  0.25303636     0.24600
C915        C  0.14744780  0.53433128  0.23904156    -0.23400
C916        C  0.17489977  0.52022579  0.25025277     0.19500
F917        F  0.19823199  0.50492187  0.23719986    -0.13400
F918        F  0.20274446  0.50345063  0.28514190    -0.15700
F919        F  0.10560681  0.57556412  0.24302565    -0.15700
F920        F  0.11039033  0.57405669  0.29093837    -0.13400
C921        C  0.18505441  0.42544155  0.34287798     0.24700
C922        C  0.15718495  0.44198898  0.35109919    -0.23500
C923        C  0.13287080  0.42405597  0.36307671     0.19600
C924        C  0.13434666  0.38993633  0.36376659     0.24600
C925        C  0.15981213  0.37339760  0.35221748    -0.23400
C926        C  0.18614022  0.39141368  0.34311263     0.19500
F927        F  0.21211554  0.37598198  0.33318164    -0.13400
F928        F  0.21043446  0.44216664  0.33328940    -0.15700
F929        F  0.10929522  0.37322827  0.37374803    -0.15700
F930        F  0.10616087  0.43893749  0.37226570    -0.13400
C931        C  0.89501223  0.51901040  0.25171504     0.24700
C932        C  0.91529283  0.49746712  0.23869176    -0.23500
C933        C  0.93515265  0.47564434  0.25171795     0.19600
C934        C  0.93431546  0.47446695  0.27622724     0.24600
C935        C  0.91560331  0.49681484  0.28960804    -0.23400
C936        C  0.89544629  0.51895368  0.27696705     0.19500
F937        F  0.87606945  0.54042498  0.28864769    -0.13400
F938        F  0.87549724  0.54075368  0.24039454    -0.15700
F939        F  0.95330614  0.45158293  0.28706079    -0.15700
F940        F  0.95615780  0.45493777  0.24058118    -0.13400
C941        C  0.88836949  0.40216468  0.35302546     0.24700
C942        C  0.91578315  0.42124264  0.35877152    -0.23500
C943        C  0.94299777  0.40591112  0.36908701     0.19600
C944        C  0.94511388  0.37179631  0.36950198     0.24600
C945        C  0.91984688  0.35268136  0.35976912    -0.23400
C946        C  0.89036126  0.36810831  0.35358055     0.19500
F947        F  0.86455380  0.35026230  0.34583567    -0.13400
F948        F  0.86069820  0.41645513  0.34473212    -0.15700
F949        F  0.97351180  0.35803314  0.37674958    -0.15700
F950        F  0.96927509  0.42358297  0.37605370    -0.13400
C951        C  0.01983125  0.46723625  0.34299359     0.24700
C952        C  0.99972660  0.49204484  0.35215927    -0.23500
C953        C  0.01407629  0.52041970  0.36157358     0.19600
C954        C  0.04803294  0.52460530  0.36065637     0.24600
C955        C  0.06780401  0.50066765  0.35001803    -0.23400
C956        C  0.05353330  0.47168139  0.34165973     0.19500
F957        F  0.07192210  0.44897444  0.33021498    -0.13400
F958        F  0.00643672  0.44012637  0.33306640    -0.15700
F959        F  0.06129194  0.55324777  0.36801853    -0.15700
F960        F  0.99501211  0.54538144  0.36931367    -0.13400
C961        C  0.20909487  0.39071643  0.09881501     0.24700
C962        C  0.23724622  0.37606323  0.10837291    -0.23500
C963        C  0.26292082  0.39600708  0.11635915     0.19600
C964        C  0.25962843  0.43003078  0.11605671     0.24600
C965        C  0.23072150  0.44448928  0.10757722    -0.23400
C966        C  0.20598675  0.42447326  0.09827135     0.19500
F967        F  0.17822676  0.43741979  0.08902065    -0.13400
F968        F  0.18394841  0.37246946  0.09042867    -0.15700
F969        F  0.28430458  0.44864742  0.12471000    -0.15700
F970        F  0.29078192  0.38268565  0.12511896    -0.13400
C971        C  0.23594322  0.56265491  0.00425585     0.24700
C972        C  0.20655119  0.56332981  0.99131978    -0.23500
C973        C  0.17701516  0.56646862  0.00395931     0.19600
C974        C  0.17694752  0.56652933  0.02905994     0.24600
C975        C  0.20640169  0.56345283  0.04181827    -0.23400
C976        C  0.23587594  0.56275709  0.02901936     0.19500
F977        F  0.26503346  0.56112039  0.04043360    -0.13400
F978        F  0.26516679  0.56091298  0.99296795    -0.15700
F979        F  0.14805500  0.56795320  0.04077727    -0.15700
F980        F  0.14817736  0.56780906  0.99215154    -0.13400
C981        C  0.20234034  0.25710391  0.00686031     0.24700
C982        C  0.23169325  0.25906902  0.99389507    -0.23500
C983        C  0.26138696  0.25813416  0.00646588     0.19600
C984        C  0.26183089  0.25715659  0.03127984     0.24600
C985        C  0.23259816  0.25705258  0.04436875    -0.23400
C986        C  0.20280890  0.25599269  0.03190777     0.19500
F987        F  0.17412202  0.25588486  0.04393590    -0.13400
F988        F  0.17319011  0.25814540  0.99545031    -0.15700
F989        F  0.29116295  0.25717647  0.04250952    -0.15700
F990        F  0.29033806  0.25898419  0.99476626    -0.13400
C991        C  0.26189898  0.39698420  0.91301957     0.24700
C992        C  0.24072945  0.37812815  0.92711839    -0.23500
C993        C  0.21713526  0.39389853  0.94117034     0.19600
C994        C  0.21344758  0.42761005  0.94014577     0.24600
C995        C  0.23349805  0.44641981  0.92524672    -0.23400
C996        C  0.25827772  0.43098781  0.91207593     0.19500
F997        F  0.27778102  0.44851463  0.89731866    -0.13400
F998        F  0.28486330  0.38248032  0.89918992    -0.15700
F999        F  0.18977962  0.44175166  0.95356015    -0.15700
F1000       F  0.19700107  0.37663172  0.95565072    -0.13400
C1001       C  0.03851187  0.24669668  0.85664733     0.24700
C1002       C  0.01911100  0.27421149  0.86153186    -0.23500
C1003       C  0.03401192  0.30263411  0.87040232     0.19600
C1004       C  0.06799607  0.30544189  0.87017988     0.24600
C1005       C  0.08721755  0.27961716  0.86138532    -0.23400
C1006       C  0.07237692  0.24930202  0.85681338     0.19500
F1007       F  0.09058927  0.22311620  0.85014618    -0.13400
F1008       F  0.02465797  0.21827607  0.84935421    -0.15700
F1009       F  0.08150422  0.33467388  0.87582610    -0.15700
F1010       F  0.01591494  0.32913319  0.87643545    -0.13400
C1011       C  0.96914312  0.40887135  0.84158141     0.24700
C1012       C  0.94313027  0.42427521  0.85333726    -0.23500
C1013       C  0.92223645  0.40564562  0.86775545     0.19600
C1014       C  0.92536452  0.37141902  0.86834445     0.24600
C1015       C  0.94981785  0.35597855  0.85489770    -0.23400
C1016       C  0.97269306  0.37509147  0.84261137     0.19500
F1017       F  0.99666652  0.36065657  0.82965116    -0.13400
F1018       F  0.98958563  0.42637523  0.82748000    -0.15700
F1019       F  0.90280356  0.35329269  0.88004918    -0.15700
F1020       F  0.89711552  0.42023958  0.87932994    -0.13400
C1021       C  0.04606197  0.54958186  0.85908386     0.24700
C1022       C  0.06580448  0.52195149  0.86294769    -0.23500
C1023       C  0.05119253  0.49246385  0.86996360     0.19600
C1024       C  0.01738808  0.48912676  0.86880003     0.24600
C1025       C  0.99816317  0.51515656  0.86043101    -0.23400
C1026       C  0.01233590  0.54609224  0.85751482     0.19500
F1027       F  0.99385751  0.57211784  0.85089636    -0.13400
F1028       F  0.05970235  0.57897025  0.85390886    -0.15700
F1029       F  0.00416758  0.45928652  0.87283138    -0.15700
F1030       F  0.06951051  0.46558874  0.87464409    -0.13400
C1031       C  0.11278944  0.42003677  0.83881174     0.24700
C1032       C  0.13450204  0.43978675  0.85175445    -0.23500
C1033       C  0.15821541  0.42480470  0.86620900     0.19600
C1034       C  0.16200000  0.39057717  0.86591968     0.24600
C1035       C  0.14207703  0.37125243  0.85117190    -0.23400
C1036       C  0.11658982  0.38615213  0.83848235     0.19500
F1037       F  0.09643607  0.36790540  0.82466532    -0.13400
F1038       F  0.08907097  0.43384800  0.82523981    -0.15700
F1039       F  0.18665429  0.37663328  0.87846699    -0.15700
F1040       F  0.17932570  0.44337688  0.87896331    -0.13400
C1041       C  0.94539798  0.48598476  0.75246247     0.24700
C1042       C  0.92177641  0.50345061  0.73932894    -0.23500
C1043       C  0.89953906  0.52315115  0.75229281     0.19600
C1044       C  0.90049627  0.52400650  0.77757359     0.24600
C1045       C  0.92428234  0.50593185  0.79029928    -0.23400
C1046       C  0.94773248  0.48870331  0.77689998     0.19500
F1047       F  0.97280850  0.47277873  0.78770763    -0.13400
F1048       F  0.96693479  0.46568649  0.74149245    -0.15700
F1049       F  0.87866304  0.54305523  0.78919847    -0.15700
F1050       F  0.87643110  0.54098207  0.74094301    -0.13400
C1051       C  0.15782871  0.55074091  0.75455666     0.24700
C1052       C  0.13447027  0.53239702  0.74171717    -0.23500
C1053       C  0.11199243  0.51360100  0.75495238     0.19600
C1054       C  0.11289958  0.51253323  0.77944831     0.24600
C1055       C  0.13704596  0.52919240  0.79255894    -0.23400
C1056       C  0.15909061  0.54919242  0.77978602     0.19500
F1057       F  0.18234159  0.56655847  0.79128349    -0.13400
F1058       F  0.18059809  0.56863039  0.74295279    -0.15700
F1059       F  0.09064709  0.49304723  0.79042957    -0.15700
F1060       F  0.09017097  0.49354043  0.74410021    -0.13400
C1061       C  0.04350437  0.53781858  0.66904799     0.24700
C1062       C  0.06476449  0.51095529  0.67105334    -0.23500
C1063       C  0.05179685  0.47926271  0.66987244     0.19600
C1064       C  0.01802672  0.47450060  0.67047285     0.24600
C1065       C  0.99667705  0.50137116  0.67045515    -0.23400
C1066       C  0.00970118  0.53303110  0.66845311     0.19500
F1067       F  0.98963294  0.55944638  0.66906187    -0.13400
F1068       F  0.05537421  0.56874075  0.67021259    -0.15700
F1069       F  0.00662165  0.44401379  0.67483720    -0.15700
F1070       F  0.07163316  0.45286295  0.67151629    -0.13400
C1071       C  0.15609244  0.25726946  0.75623155     0.24700
C1072       C  0.17471956  0.28127856  0.74439952    -0.23500
C1073       C  0.19809651  0.29811236  0.75820049     0.19600
C1074       C  0.19622793  0.29786759  0.78314212     0.24600
C1075       C  0.17142238  0.28022333  0.79483877    -0.23400
C1076       C  0.15460450  0.25656927  0.78117277     0.19500
F1077       F  0.13731785  0.23223368  0.79158985    -0.13400
F1078       F  0.13915516  0.23447477  0.74379081    -0.15700
F1079       F  0.21701927  0.31699294  0.79575057    -0.15700
F1080       F  0.22141672  0.31657987  0.74760259    -0.13400
C1081       C  0.16864339  0.42832068  0.67149573     0.24700
C1082       C  0.14456382  0.44310993  0.68564907    -0.23500
C1083       C  0.12517450  0.42359881  0.70061525     0.19600
C1084       C  0.13106131  0.39038078  0.70264946     0.24600
C1085       C  0.15578822  0.37564268  0.68924718    -0.23400
C1086       C  0.17411268  0.39447203  0.67318422     0.19500
F1087       F  0.19852290  0.38049505  0.66043221    -0.13400
F1088       F  0.18820060  0.44684753  0.65746054    -0.15700
F1089       F  0.11301974  0.37258057  0.71824037    -0.15700
F1090       F  0.10157351  0.43717094  0.71439589    -0.13400
C1091       C  0.96498209  0.29410420  0.75499260     0.24700
C1092       C  0.94455182  0.27353682  0.74147531    -0.23500
C1093       C  0.92344209  0.25224700  0.75405685     0.19600
C1094       C  0.92288226  0.25213279  0.77932973     0.24600
C1095       C  0.94425853  0.27242151  0.79243783    -0.23400
C1096       C  0.96618175  0.29215445  0.77947406     0.19500
F1097       F  0.98849881  0.31124537  0.79073189    -0.13400
F1098       F  0.98425352  0.31691803  0.74443613    -0.15700
F1099       F  0.90147211  0.23226690  0.79059319    -0.15700
F1100       F  0.90228509  0.23266319  0.74228715    -0.13400
C1101       C  0.94194389  0.40564395  0.65965759     0.24700
C1102       C  0.91805596  0.42040096  0.67410544    -0.23500
C1103       C  0.89391284  0.40028317  0.68415822     0.19600
C1104       C  0.89789990  0.36642581  0.68437939     0.24600
C1105       C  0.92626334  0.35220236  0.67479381    -0.23400
C1106       C  0.94612453  0.37160132  0.66007421     0.19500
F1107       F  0.97084624  0.35825100  0.64739141    -0.13400
F1108       F  0.96267853  0.42391784  0.64646077    -0.15700
F1109       F  0.87517880  0.34770921  0.69545974    -0.15700
F1110       F  0.86757394  0.41351158  0.69519564    -0.13400
C1111       C  0.04095712  0.26066102  0.67559049     0.24700
C1112       C  0.02126430  0.28882153  0.67475090    -0.23500
C1113       C  0.03646664  0.31961851  0.67391550     0.19600
C1114       C  0.07049921  0.32217446  0.67526146     0.24600
C1115       C  0.08962891  0.29419874  0.67918783    -0.23400
C1116       C  0.07477770  0.26333442  0.67816096     0.19500
F1117       F  0.09281224  0.23585073  0.68144689    -0.13400
F1118       F  0.02699062  0.23064379  0.67687054    -0.15700
F1119       F  0.08424267  0.35226262  0.67546291    -0.15700
F1120       F  0.01850294  0.34734992  0.67533772    -0.13400
C1121       C  0.04783916  0.57480669  0.43486217     0.24700
C1122       C  0.06415306  0.59526994  0.41878853    -0.23500
C1123       C  0.04611292  0.61491508  0.40300268     0.19600
C1124       C  0.01202938  0.61301232  0.40275738     0.24600
C1125       C  0.99594901  0.59134038  0.41823754    -0.23400
C1126       C  0.01415798  0.57288469  0.43460513     0.19500
F1127       F  0.99937163  0.55255346  0.45036340    -0.13400
F1128       F  0.06452832  0.55624673  0.45080888    -0.15700
F1129       F  0.99501737  0.63095338  0.38664274    -0.15700
F1130       F  0.06144700  0.63441116  0.38697657    -0.13400
C1131       C  0.87659053  0.59270606  0.52643546     0.24700
C1132       C  0.88191664  0.56361862  0.53926225    -0.23500
C1133       C  0.88723926  0.53445436  0.52649048     0.19600
C1134       C  0.88819643  0.53465466  0.50143316     0.24600
C1135       C  0.88382904  0.56404196  0.48873664    -0.23400
C1136       C  0.87746674  0.59288262  0.50157247     0.19500
F1137       F  0.87224221  0.62157742  0.49000869    -0.13400
F1138       F  0.87075023  0.62129148  0.53796144    -0.15700
F1139       F  0.89517854  0.50650083  0.48971490    -0.15700
F1140       F  0.89330249  0.50610011  0.53824881    -0.13400
C1141       C  0.17868473  0.55432853  0.50284873     0.24700
C1142       C  0.17417609  0.58354218  0.48992637    -0.23500
C1143       C  0.16971404  0.61287052  0.50262878     0.19600
C1144       C  0.16875623  0.61301807  0.52739415     0.24600
C1145       C  0.17214006  0.58384300  0.54043752    -0.23400
C1146       C  0.17749779  0.55445246  0.52792588     0.19500
F1147       F  0.18025742  0.52571851  0.53984583    -0.13400
F1148       F  0.18302032  0.52553609  0.49127716    -0.15700
F1149       F  0.16427377  0.64210477  0.53858084    -0.15700
F1150       F  0.16593829  0.64182009  0.49110138    -0.13400
C1151       C  0.00616936  0.61352426  0.61783766     0.24700
C1152       C  0.99128385  0.58349038  0.61224198    -0.23500
C1153       C  0.01113758  0.55657556  0.60643806     0.19600
C1154       C  0.04486779  0.55950340  0.60614261     0.24600
C1155       C  0.05996352  0.58937199  0.61186514    -0.23400
C1156       C  0.04025927  0.61647328  0.61757202     0.19500
F1157       F  0.05387007  0.64580071  0.62288132    -0.13400
F1158       F  0.98785006  0.64000134  0.62363304    -0.15700
F1159       F  0.06266359  0.53263765  0.60036076    -0.15700
F1160       F  0.99807714  0.52693591  0.60121771    -0.13400
C1161       C  0.82881491  0.36432261  0.11964423     0.24700
C1162       C  0.85931523  0.35014802  0.11445797    -0.23500
C1163       C  0.88551690  0.37060591  0.10834564     0.19600
C1164       C  0.88126546  0.40424798  0.10685101     0.24600
C1165       C  0.85075461  0.41856583  0.11173347    -0.23400
C1166       C  0.82458383  0.39828307  0.11831415     0.19500
F1167       F  0.79488979  0.41119840  0.12338245    -0.13400
F1168       F  0.80301386  0.34541998  0.12586955    -0.15700
F1169       F  0.90742790  0.42274007  0.10073104    -0.15700
F1170       F  0.91559031  0.35819480  0.10376729    -0.13400
C1171       C  0.82319828  0.53492219  0.00150197     0.24700
C1172       C  0.85282621  0.53636062  0.98892416    -0.23500
C1173       C  0.88200156  0.54036072  0.00186077     0.19600
C1174       C  0.88162334  0.54004820  0.02692850     0.24600
C1175       C  0.85205365  0.53601939  0.03933539    -0.23400
C1176       C  0.82281548  0.53482503  0.02629135     0.19500
F1177       F  0.79356906  0.53290860  0.03752933    -0.13400
F1178       F  0.79429274  0.53288258  0.98979815    -0.15700
F1179       F  0.91026190  0.54188283  0.03896022    -0.15700
F1180       F  0.91097503  0.54287409  0.99036008    -0.13400
C1181       C  0.90624566  0.22706660  0.00302768     0.24700
C1182       C  0.87693072  0.23417998  0.99088338    -0.23500
C1183       C  0.84857869  0.23956130  0.00443070     0.19600
C1184       C  0.84975579  0.24047074  0.02914461     0.24600
C1185       C  0.87926819  0.23564902  0.04145445    -0.23400
C1186       C  0.90739122  0.22774382  0.02817235     0.19500
F1187       F  0.93611020  0.22178912  0.03938168    -0.13400
F1188       F  0.93390663  0.22048608  0.99067179    -0.15700
F1189       F  0.82156744  0.24670241  0.04098496    -0.15700
F1190       F  0.81928736  0.24476621  0.99379732    -0.13400
C1191       C  0.85327808  0.40235363  0.94014159     0.24700
C1192       C  0.83941781  0.41831502  0.92046863    -0.23500
C1193       C  0.82640401  0.39977982  0.90169311     0.19600
C1194       C  0.82906079  0.36565293  0.90200520     0.24600
C1195       C  0.84457704  0.34988904  0.92116994    -0.23400
C1196       C  0.85561184  0.36842477  0.94057497     0.19500
F1197       F  0.86922624  0.35368681  0.95983622    -0.13400
F1198       F  0.86515065  0.41972460  0.95881970    -0.15700
F1199       F  0.81864787  0.34829591  0.88287143    -0.15700
F1200       F  0.81344471  0.41474915  0.88229960    -0.13400
C1201       C  0.29089915  0.67313291  0.41228171     0.24700
C1202       C  0.28273400  0.70442030  0.40370339    -0.23500
C1203       C  0.25165586  0.70982812  0.39399035     0.19600
C1204       C  0.22839920  0.68502621  0.39429236     0.24600
C1205       C  0.23587850  0.65438317  0.40428382    -0.23400
C1206       C  0.26761873  0.64832148  0.41261447     0.19500
F1207       F  0.27560069  0.61911035  0.42253453    -0.13400
F1208       F  0.32072794  0.66705271  0.42181414    -0.15700
F1209       F  0.19829158  0.69131881  0.38532361    -0.15700
F1210       F  0.24350472  0.73934333  0.38464585    -0.13400
C1211       C  0.26047337  0.13618014  0.40249510     0.24700
C1212       C  0.26834573  0.16875028  0.40809463    -0.23500
C1213       C  0.30115029  0.17711622  0.41208943     0.19600
C1214       C  0.32520831  0.15288035  0.41229933     0.24600
C1215       C  0.31676488  0.11991685  0.40869817    -0.23400
C1216       C  0.28436067  0.11203060  0.40289843     0.19500
F1217       F  0.27531353  0.08069718  0.39844666    -0.13400
F1218       F  0.22933660  0.12724220  0.39749719    -0.15700
F1219       F  0.35646494  0.16158645  0.41705246    -0.15700
F1220       F  0.30983960  0.20843348  0.41689728    -0.13400
C1221       C  0.38853076  0.92556523  0.42385911     0.24700
C1222       C  0.36200154  0.94726238  0.42305433    -0.23500
C1223       C  0.33008359  0.93456821  0.42248039     0.19600
C1224       C  0.32497213  0.90068769  0.42248069     0.24600
C1225       C  0.35169267  0.87912557  0.42302066    -0.23400
C1226       C  0.38348081  0.89203760  0.42381828     0.19500
F1227       F  0.41011535  0.87227613  0.42389132    -0.13400
F1228       F  0.41972473  0.93664963  0.42413156    -0.15700
F1229       F  0.29399031  0.88907458  0.42205071    -0.15700
F1230       F  0.30384464  0.95482242  0.42203446    -0.13400
C1231       C  0.29241252  0.67104897  0.61814348     0.24700
C1232       C  0.28538049  0.70434628  0.62182914    -0.23500
C1233       C  0.25296492  0.71361177  0.62665206     0.19600
C1234       C  0.22799947  0.69036406  0.62676797     0.24600
C1235       C  0.23482056  0.65722829  0.62215759    -0.23400
C1236       C  0.26743790  0.64778724  0.61824303     0.19500
F1237       F  0.27524134  0.61612178  0.61376548    -0.13400
F1238       F  0.32335559  0.66094425  0.61369195    -0.15700
F1239       F  0.19701467  0.70058456  0.63089689    -0.15700
F1240       F  0.24514021  0.74535029  0.63085255    -0.13400
C1241       C  0.32958929  0.75449601  0.52706763     0.24700
C1242       C  0.35980936  0.75819292  0.53857996    -0.23500
C1243       C  0.38828628  0.76018909  0.52472836     0.19600
C1244       C  0.38619212  0.76075802  0.49973492     0.24600
C1245       C  0.35560784  0.75930264  0.48833867    -0.23400
C1246       C  0.32747510  0.75514378  0.50229745     0.19500
F1247       F  0.29762809  0.75249480  0.49200369    -0.13400
F1248       F  0.30176064  0.75100432  0.53991377    -0.15700
F1249       F  0.41379614  0.76500476  0.48679506    -0.15700
F1250       F  0.41779579  0.76390423  0.53530661    -0.13400
C1251       C  0.31662834  0.14943740  0.62723611     0.24700
C1252       C  0.30699957  0.11645257  0.62821710    -0.23500
C1253       C  0.27365188  0.10897295  0.63033508     0.19600
C1254       C  0.25036099  0.13379654  0.63007988     0.24600
C1255       C  0.25987166  0.16664754  0.62746959    -0.23400
C1256       C  0.29327267  0.17429831  0.62685457     0.19500
F1257       F  0.30344449  0.20578941  0.62524716    -0.13400
F1258       F  0.34859755  0.15774346  0.62580420    -0.15700
F1259       F  0.21840750  0.12537203  0.63151709    -0.15700
F1260       F  0.26328177  0.07752354  0.63178580    -0.13400
C1261       C  0.35802712  0.06737157  0.53064545     0.24700
C1262       C  0.38604941  0.06140197  0.54437624    -0.23500
C1263       C  0.41639369  0.05848939  0.53277756     0.19600
C1264       C  0.41814966  0.05935048  0.50773558     0.24600
C1265       C  0.38955310  0.06297813  0.49411952    -0.23400
C1266       C  0.35978443  0.06820856  0.50591604     0.19500
F1267       F  0.33189114  0.07319737  0.49338086    -0.13400
F1268       F  0.32848364  0.07154422  0.54113186    -0.15700
F1269       F  0.44728171  0.05436962  0.49688311    -0.15700
F1270       F  0.44391104  0.05263601  0.54552291    -0.13400
C1271       C  0.32875538  0.89382296  0.61039134     0.24700
C1272       C  0.35698209  0.87443959  0.61190668    -0.23500
C1273       C  0.38748420  0.88958470  0.61478525     0.19600
C1274       C  0.38986777  0.92346590  0.61537672     0.24600
C1275       C  0.36173344  0.94296926  0.61363695    -0.23400
C1276       C  0.33110950  0.92789848  0.61130574     0.19500
F1277       F  0.30357444  0.94610158  0.60917415    -0.13400
F1278       F  0.29901047  0.87988798  0.60745250    -0.15700
F1279       F  0.41979619  0.93710482  0.61821652    -0.15700
F1280       F  0.41509808  0.87162695  0.61765855    -0.13400
C1281       C  0.44663136  0.89346980  0.16199501     0.21500
C1282       C  0.41736172  0.87873574  0.16920686    -0.23500
C1283       C  0.39047630  0.89862320  0.17467723     0.19600
C1284       C  0.39456412  0.93220057  0.17744563     0.24600
C1285       C  0.42554472  0.94621491  0.17455834    -0.23400
C1286       C  0.45097701  0.92708743  0.16511142     0.19500
F1287       F  0.48104940  0.93993764  0.16151995    -0.13400
F1288       F  0.47219848  0.87508628  0.15458966    -0.15700
F1289       F  0.36896252  0.95056451  0.18494072    -0.15700
F1290       F  0.36122479  0.88497665  0.18002618    -0.13400
C1291       C  0.54806775  0.82805207  0.18236720     0.24700
C1292       C  0.56341947  0.80069129  0.17223852    -0.23500
C1293       C  0.54437162  0.77647239  0.16126974     0.19600
C1294       C  0.51018669  0.77853415  0.16195138     0.24600
C1295       C  0.49500627  0.80492736  0.17351994    -0.23400
C1296       C  0.51420784  0.82999196  0.18317771     0.19500
F1297       F  0.50012384  0.85469957  0.19564342    -0.13400
F1298       F  0.56586160  0.85106786  0.19395391    -0.15700
F1299       F  0.49207842  0.75321307  0.15371105    -0.15700
F1300       F  0.55877704  0.74920195  0.15238700    -0.13400
C1301       C  0.63245356  0.87548220  0.15945192     0.24700
C1302       C  0.65715678  0.85506878  0.16836260    -0.23500
C1303       C  0.68808922  0.86832368  0.17290257     0.19600
C1304       C  0.69263301  0.90208923  0.17221249     0.24600
C1305       C  0.66590833  0.92295458  0.16796719    -0.23400
C1306       C  0.63659284  0.90936099  0.15958161     0.19500
F1307       F  0.61047787  0.92850313  0.15450738    -0.13400
F1308       F  0.60289098  0.86316693  0.15350938    -0.15700
F1309       F  0.72217402  0.91451845  0.17830290    -0.15700
F1310       F  0.71302804  0.84882573  0.18011858    -0.13400
C1311       C  0.56956559  0.01689823  0.16834492     0.24700
C1312       C  0.58466673  0.99275776  0.18241005    -0.23500
C1313       C  0.56516897  0.97150644  0.19593637     0.19600
C1314       C  0.53149610  0.97592847  0.19701002     0.24600
C1315       C  0.51657007  0.00161058  0.18452942    -0.23400
C1316       C  0.53552365  0.02119089  0.16929954     0.19500
F1317       F  0.52144096  0.04584138  0.15677228    -0.13400
F1318       F  0.58791087  0.03789998  0.15530292    -0.15700
F1319       F  0.51348170  0.95598316  0.21114779    -0.15700
F1320       F  0.57908310  0.94756706  0.20927732    -0.13400
C1321       C  0.40217825  0.01451206  0.25499875     0.24700
C1322       C  0.42618493  0.03086592  0.24140858    -0.23500
C1323       C  0.44404265  0.05556183  0.25313583     0.19600
C1324       C  0.44406107  0.05759880  0.27808964     0.24600
C1325       C  0.42661071  0.03462168  0.29188989    -0.23400
C1326       C  0.40240159  0.01644413  0.27994030     0.19500
F1327       F  0.37912734  0.00013116  0.29231776    -0.13400
F1328       F  0.37804269  0.99711920  0.24447440    -0.15700
F1329       F  0.46293673  0.08060214  0.28871379    -0.15700
F1330       F  0.46353912  0.07607325  0.24057795    -0.13400
C1331       C  0.43293208  0.82246488  0.27488169     0.24700
C1332       C  0.40995018  0.80406629  0.28789044    -0.23500
C1333       C  0.38754126  0.78477615  0.27485326     0.19600
C1334       C  0.38868666  0.78388140  0.24961997     0.24600
C1335       C  0.41214953  0.80238172  0.23701023    -0.23400
C1336       C  0.43340123  0.82233455  0.25035465     0.19500
F1337       F  0.45566641  0.84193395  0.23950957    -0.13400
F1338       F  0.45605055  0.84067824  0.28605138    -0.15700
F1339       F  0.36655796  0.76535685  0.23788990    -0.15700
F1340       F  0.36518681  0.76604987  0.28616369    -0.13400
C1341       C  0.46089348  0.89170290  0.35334881     0.24700
C1342       C  0.42935175  0.87869955  0.35549469    -0.23500
C1343       C  0.40296916  0.89996986  0.35938450     0.19600
C1344       C  0.40773319  0.93385185  0.35884723     0.24600
C1345       C  0.43901278  0.94671223  0.35493085    -0.23400
C1346       C  0.46578918  0.92546105  0.35397336     0.19500
F1347       F  0.49629504  0.93728867  0.35078969    -0.13400
F1348       F  0.48628708  0.87222834  0.34718569    -0.15700
F1349       F  0.38154158  0.95410001  0.36014063    -0.15700
F1350       F  0.37220069  0.88798821  0.36099887    -0.13400
C1351       C  0.65401467  0.75330957  0.27517441     0.24700
C1352       C  0.63845048  0.77892912  0.28779701    -0.23500
C1353       C  0.62388821  0.80412982  0.27433229     0.19600
C1354       C  0.62630643  0.80512706  0.24984817     0.24600
C1355       C  0.64134519  0.77973122  0.23685425    -0.23400
C1356       C  0.65534247  0.75364809  0.24991926     0.19500
F1357       F  0.66985847  0.72827077  0.23862869    -0.13400
F1358       F  0.66646341  0.72713615  0.28684697    -0.15700
F1359       F  0.61234127  0.83106358  0.23860677    -0.15700
F1360       F  0.60639144  0.82830384  0.28496607    -0.13400
C1361       C  0.53645915  0.75423208  0.34352815     0.24700
C1362       C  0.55599810  0.77935837  0.35293665    -0.23500
C1363       C  0.54112833  0.80311105  0.36742655     0.19600
C1364       C  0.50706825  0.80569035  0.36809226     0.24600
C1365       C  0.48785525  0.78472158  0.35406033    -0.23400
C1366       C  0.50261973  0.75681884  0.34419314     0.19500
F1367       F  0.48434892  0.73336012  0.33350670    -0.13400
F1368       F  0.55013118  0.72830104  0.33220164    -0.15700
F1369       F  0.49340165  0.83021051  0.38088751    -0.15700
F1370       F  0.55917176  0.82530043  0.37948628    -0.13400
C1371       C  0.66292017  0.96865694  0.25149581     0.24700
C1372       C  0.67757177  0.99409616  0.23833953    -0.23500
C1373       C  0.69608148  0.01745704  0.25108505     0.19600
C1374       C  0.69770911  0.01630315  0.27636261     0.24600
C1375       C  0.68112712  0.99159570  0.28923852    -0.23400
C1376       C  0.66431132  0.96762842  0.27596865     0.19500
F1377       F  0.64579664  0.94439129  0.28673586    -0.13400
F1378       F  0.64444264  0.94542179  0.24065080    -0.15700
F1379       F  0.71362937  0.04051032  0.28799695    -0.15700
F1380       F  0.71132999  0.04215011  0.23952864    -0.13400
C1381       C  0.62438619  0.91100109  0.36014850     0.24700
C1382       C  0.65679212  0.92196487  0.35912051    -0.23500
C1383       C  0.68210566  0.89874581  0.36000255     0.19600
C1384       C  0.67504092  0.86526793  0.35894319     0.24600
C1385       C  0.64258098  0.85461208  0.35677602    -0.23400
C1386       C  0.61734626  0.87769267  0.35806267     0.19500
F1387       F  0.58615931  0.86866481  0.35365698    -0.13400
F1388       F  0.59935324  0.93258967  0.35981496    -0.15700
F1389       F  0.69995038  0.84349024  0.35727847    -0.15700
F1390       F  0.71368121  0.90863667  0.35942742    -0.13400
C1391       C  0.57550622  0.02221244  0.36111258     0.24700
C1392       C  0.58957899  0.00102830  0.34432173    -0.23500
C1393       C  0.56928262  0.98350571  0.32870293     0.19600
C1394       C  0.53588992  0.98880966  0.32862479     0.24600
C1395       C  0.52177419  0.01103637  0.34463263    -0.23400
C1396       C  0.54155898  0.02700852  0.36139008     0.19500
F1397       F  0.52828049  0.04869732  0.37687915    -0.13400
F1398       F  0.59470107  0.03976505  0.37604664    -0.15700
F1399       F  0.51729576  0.97273837  0.31238749    -0.15700
F1400       F  0.58199011  0.96170132  0.31298949    -0.13400
C1401       C  0.78019051  0.18242828  0.13594646     0.24700
C1402       C  0.81067859  0.17591356  0.12557357    -0.23500
C1403       C  0.81698151  0.14468866  0.11614829     0.19600
C1404       C  0.79240836  0.12113244  0.11565419     0.24600
C1405       C  0.76127941  0.12850121  0.12464250    -0.23400
C1406       C  0.75578806  0.15887420  0.13560954     0.19500
F1407       F  0.72639829  0.16629037  0.14535387    -0.13400
F1408       F  0.77352863  0.21200367  0.14578718    -0.15700
F1409       F  0.79852575  0.09198177  0.10498919    -0.15700
F1410       F  0.84615038  0.13759858  0.10596085    -0.13400
C1411       C  0.29649383  0.17421137  0.13536411     0.24700
C1412       C  0.30528163  0.20723476  0.13263177    -0.23500
C1413       C  0.33844123  0.21552701  0.13080309     0.19600
C1414       C  0.36207734  0.19117887  0.12964444     0.24600
C1415       C  0.35303437  0.15803075  0.13028382    -0.23400
C1416       C  0.32019990  0.14977704  0.13414897     0.19500
F1417       F  0.31075096  0.11805466  0.13575500    -0.13400
F1418       F  0.26483383  0.16536902  0.13815228    -0.15700
F1419       F  0.39361023  0.20024307  0.12642887    -0.15700
F1420       F  0.34804132  0.24712960  0.12851956    -0.13400
C1421       C  0.56787306  0.06779605  0.08847934     0.24700
C1422       C  0.58689967  0.08935740  0.10208874    -0.23500
C1423       C  0.57183981  0.11557713  0.11395152     0.19600
C1424       C  0.53793146  0.11850258  0.11382951     0.24600
C1425       C  0.51886985  0.09523139  0.10182908    -0.23400
C1426       C  0.53415471  0.07077269  0.08830062     0.19500
F1427       F  0.51641720  0.04908452  0.07537525    -0.13400
F1428       F  0.58180036  0.04326381  0.07574660    -0.15700
F1429       F  0.52379440  0.14279090  0.12666681    -0.15700
F1430       F  0.58967751  0.13715060  0.12686883    -0.13400
C1431       C  0.74833277  0.16215407  0.89614976     0.24700
C1432       C  0.75626406  0.12959934  0.90176660    -0.23500
C1433       C  0.78898473  0.12127395  0.90627067     0.19600
C1434       C  0.81289689  0.14548860  0.90689304     0.24600
C1435       C  0.80439591  0.17841049  0.90321239    -0.23400
C1436       C  0.77214995  0.18630690  0.89688089     0.19500
F1437       F  0.76323289  0.21763729  0.89218055    -0.13400
F1438       F  0.71723600  0.17106122  0.89091496    -0.15700
F1439       F  0.84399326  0.13680405  0.91227279    -0.15700
F1440       F  0.79771616  0.08997311  0.91121216    -0.13400
C1441       C  0.69852198  0.03068640  0.00028584     0.24700
C1442       C  0.69854055  0.06005363  0.98718424    -0.23500
C1443       C  0.70087639  0.08984738  0.99956237     0.19600
C1444       C  0.70171699  0.09045632  0.02435650     0.24600
C1445       C  0.70000660  0.06128695  0.03763013    -0.23400
C1446       C  0.69925519  0.03129344  0.02532154     0.19500
F1447       F  0.69767800  0.00264447  0.03744608    -0.13400
F1448       F  0.69611767  0.00148663  0.98896765    -0.15700
F1449       F  0.70352893  0.11996877  0.03534345    -0.15700
F1450       F  0.70181396  0.11876446  0.98768976    -0.13400
C1451       C  0.33214951  0.21137862  0.89956489     0.24700
C1452       C  0.29917626  0.20426965  0.90410593    -0.23500
C1453       C  0.28936611  0.17134310  0.90547270     0.19600
C1454       C  0.31252511  0.14626938  0.90467364     0.24600
C1455       C  0.34588757  0.15370766  0.90264395    -0.23400
C1456       C  0.35523507  0.18634427  0.89873782     0.19500
F1457       F  0.38696528  0.19433948  0.89510389    -0.13400
F1458       F  0.34247369  0.24269793  0.89697528    -0.15700
F1459       F  0.30234217  0.11489000  0.90718530    -0.15700
F1460       F  0.25759343  0.16332503  0.90883060    -0.13400
C1461       C  0.39848931  0.04937904  0.02906680     0.24700
C1462       C  0.39581040  0.07918501  0.04148269    -0.23500
C1463       C  0.39030403  0.10804317  0.02845316     0.19600
C1464       C  0.38999849  0.10764282  0.00364510     0.24600
C1465       C  0.39495515  0.07835670  0.99108817    -0.23400
C1466       C  0.39796243  0.04895877  0.00399336     0.19500
F1467       F  0.40283158  0.02024868  0.99242081    -0.13400
F1468       F  0.40399650  0.02108522  0.04104894    -0.15700
F1469       F  0.38586883  0.13633315  0.99184604    -0.15700
F1470       F  0.38635302  0.13712924  0.03974531    -0.13400
C1471       C  0.53455592  0.11043813  0.91096909     0.24700
C1472       C  0.51545312  0.08493235  0.92032121    -0.23500
C1473       C  0.53090658  0.05602916  0.92794492     0.19600
C1474       C  0.56449952  0.05261279  0.92630444     0.24600
C1475       C  0.58374429  0.07796541  0.91698604    -0.23400
C1476       C  0.56848477  0.10702897  0.90939289     0.19500
F1477       F  0.58626573  0.13211498  0.90038984    -0.13400
F1478       F  0.52048009  0.13846254  0.90305332    -0.15700
F1479       F  0.57803844  0.02411711  0.93383697    -0.15700
F1480       F  0.51356170  0.03052114  0.93679726    -0.13400
C1481       C  0.68050610  0.89537871  0.85321925     0.24700
C1482       C  0.65243642  0.91457128  0.85010972    -0.23500
C1483       C  0.62224595  0.89931580  0.84637239     0.19600
C1484       C  0.62017331  0.86534821  0.84535819     0.24600
C1485       C  0.64851352  0.84626294  0.84679359    -0.23400
C1486       C  0.67858908  0.86133519  0.85138903     0.19500
F1487       F  0.70629531  0.84320365  0.85250033    -0.13400
F1488       F  0.71010861  0.90977657  0.85571611    -0.15700
F1489       F  0.59102329  0.85144125  0.84028298    -0.15700
F1490       F  0.59553749  0.91727213  0.84065556    -0.13400
C1491       C  0.56860608  0.98089043  0.87072472     0.24700
C1492       C  0.58823463  0.00511957  0.86031313    -0.23500
C1493       C  0.57469866  0.03626160  0.85646286     0.19600
C1494       C  0.54100953  0.04075596  0.85780436     0.24600
C1495       C  0.52053941  0.01411306  0.86292349    -0.23400
C1496       C  0.53470864  0.98535167  0.87196612     0.19500
F1497       F  0.51579135  0.96040091  0.87970240    -0.13400
F1498       F  0.58160087  0.95190999  0.87758171    -0.15700
F1499       F  0.52810699  0.07011019  0.85155302    -0.15700
F1500       F  0.59379342  0.06146376  0.84922192    -0.13400
C1501       C  0.51685170  0.80424649  0.81705462     0.24700
C1502       C  0.49791093  0.79188939  0.83590152    -0.23500
C1503       C  0.51380404  0.77597654  0.85491121     0.19600
C1504       C  0.54781879  0.77110442  0.85436467     0.24600
C1505       C  0.56626441  0.78206221  0.83481162    -0.23400
C1506       C  0.55039290  0.79931503  0.81648316     0.19500
F1507       F  0.56753010  0.81213310  0.79802696    -0.13400
F1508       F  0.50297698  0.82176551  0.79916809    -0.15700
F1509       F  0.56244403  0.75447253  0.87235343    -0.15700
F1510       F  0.49634392  0.76389961  0.87343981    -0.13400
C1511       C  0.40511127  0.89193081  0.86125093     0.24700
C1512       C  0.43052947  0.87071233  0.85467240    -0.23500
C1513       C  0.46196939  0.88319137  0.85122560     0.19600
C1514       C  0.46702337  0.91680094  0.85103914     0.24600
C1515       C  0.44131958  0.93823886  0.85628870    -0.23400
C1516       C  0.41069590  0.92563540  0.86251491     0.19500
F1517       F  0.38549668  0.94615806  0.86729110    -0.13400
F1518       F  0.37449734  0.88024594  0.86463844    -0.15700
F1519       F  0.49583394  0.92840198  0.84273361    -0.15700
F1520       F  0.48691988  0.86322097  0.84498636    -0.13400
C1521       C  0.68856894  0.01481428  0.75143979     0.24700
C1522       C  0.66332809  0.99989535  0.73812733    -0.23500
C1523       C  0.63739045  0.98554590  0.75087091     0.19600
C1524       C  0.63664715  0.98537888  0.77542912     0.24600
C1525       C  0.66168678  0.99973164  0.78907812    -0.23400
C1526       C  0.68784372  0.01457807  0.77668326     0.19500
F1527       F  0.71343990  0.02757182  0.78860683    -0.13400
F1528       F  0.71427057  0.02903540  0.74044620    -0.15700
F1529       F  0.61138959  0.96949684  0.78597609    -0.15700
F1530       F  0.61241960  0.97043675  0.73937120    -0.13400
C1531       C  0.64916571  0.73261287  0.77261345     0.24700
C1532       C  0.66564477  0.75672122  0.78590768    -0.23500
C1533       C  0.68893627  0.77565554  0.77365842     0.19600
C1534       C  0.68732447  0.77850521  0.74886671     0.24600
C1535       C  0.66292952  0.76163597  0.73615269    -0.23400
C1536       C  0.64781278  0.73507849  0.74778655     0.19500
F1537       F  0.62840856  0.71413550  0.73551687    -0.13400
F1538       F  0.63102240  0.70939158  0.78366923    -0.15700
F1539       F  0.70953356  0.79758503  0.73765784    -0.15700
F1540       F  0.71255298  0.79208020  0.78560082    -0.13400
C1541       C  0.67714748  0.86776174  0.67190382     0.24700
C1542       C  0.64691299  0.85190718  0.67437022    -0.23500
C1543       C  0.61823129  0.87069043  0.67346828     0.19600
C1544       C  0.61984324  0.90484074  0.67325943     0.24600
C1545       C  0.65007400  0.92081401  0.67228177    -0.23400
C1546       C  0.67865536  0.90195828  0.67044238     0.19500
F1547       F  0.70821867  0.91683223  0.66980427    -0.13400
F1548       F  0.70528453  0.85027443  0.67262311    -0.15700
F1549       F  0.59214719  0.92208409  0.67726309    -0.15700
F1550       F  0.58866490  0.85630973  0.67573048    -0.13400
C1551       C  0.42630483  0.04390789  0.75500526     0.24700
C1552       C  0.44765164  0.02334929  0.74201283    -0.23500
C1553       C  0.46911786  0.00322366  0.75507651     0.19600
C1554       C  0.46823990  0.00198728  0.77963573     0.24600
C1555       C  0.44658790  0.02160227  0.79292906    -0.23400
C1556       C  0.42577167  0.04303953  0.78021043     0.19500
F1557       F  0.40448860  0.06281336  0.79171002    -0.13400
F1558       F  0.40601956  0.06499334  0.74375458    -0.15700
F1559       F  0.48865673  0.98047272  0.79055286    -0.15700
F1560       F  0.49081138  0.98333831  0.74387235    -0.13400
C1561       C  0.54222272  0.04981739  0.67821565     0.24700
C1562       C  0.52193281  0.02373739  0.67150457    -0.23500
C1563       C  0.53573370  0.99761198  0.65866179     0.19600
C1564       C  0.56971468  0.99429528  0.65734684     0.24600
C1565       C  0.58990191  0.01691861  0.66903320    -0.23400
C1566       C  0.57600868  0.04646750  0.67691934     0.19500
F1567       F  0.59513698  0.07066360  0.68575844    -0.13400
F1568       F  0.52943191  0.07732444  0.68801826    -0.15700
F1569       F  0.58247654  0.96751195  0.64665358    -0.15700
F1570       F  0.51677230  0.97370456  0.64937712    -0.13400
C1571       C  0.40212068  0.76586695  0.75216089     0.24700
C1572       C  0.39403676  0.79512989  0.74016749    -0.23500
C1573       C  0.37655458  0.81884258  0.75326212     0.19600
C1574       C  0.37547231  0.81719371  0.77816583     0.24600
C1575       C  0.39277031  0.79248079  0.79038363    -0.23400
C1576       C  0.40151974  0.76454975  0.77709179     0.19500
F1577       F  0.41378752  0.73770806  0.78816410    -0.13400
F1578       F  0.41441866  0.73998895  0.73996951    -0.15700
F1579       F  0.35740662  0.83968625  0.79001969    -0.15700
F1580       F  0.36019508  0.84342986  0.74231161    -0.13400
C1581       C  0.50978763  0.77554346  0.67304900     0.24700
C1582       C  0.49460560  0.79541977  0.69014854    -0.23500
C1583       C  0.51385075  0.81332824  0.70621762     0.19600
C1584       C  0.54759048  0.81030444  0.70595483     0.24600
C1585       C  0.56284400  0.78942506  0.68953561    -0.23400
C1586       C  0.54387821  0.77255115  0.67275443     0.19500
F1587       F  0.55823219  0.75179353  0.65709559    -0.13400
F1588       F  0.49159985  0.75774812  0.65759833    -0.15700
F1589       F  0.56545164  0.82772145  0.72187590    -0.15700
F1590       F  0.49985444  0.83402639  0.72214087    -0.13400
C1591       C  0.46203265  0.88669492  0.67573043     0.24700
C1592       C  0.42961387  0.87558961  0.67615110    -0.23500
C1593       C  0.40423995  0.89856317  0.67404708     0.19600
C1594       C  0.41111432  0.93207578  0.67371622     0.24600
C1595       C  0.44333325  0.94306366  0.67622440    -0.23400
C1596       C  0.46880431  0.92017311  0.67667431     0.19500
F1597       F  0.49985629  0.92994605  0.68093952    -0.13400
F1598       F  0.48715681  0.86532901  0.67712257    -0.15700
F1599       F  0.38614232  0.95389069  0.67325600    -0.15700
F1600       F  0.37270300  0.88855989  0.67396933    -0.13400
C1601       C  0.76352671  0.64621673  0.41189039     0.24700
C1602       C  0.76861073  0.67775762  0.40268523    -0.23500
C1603       C  0.79905043  0.68568826  0.39277110     0.19600
C1604       C  0.82454378  0.66318373  0.39333311     0.24600
C1605       C  0.81998317  0.63218602  0.40360690    -0.23400
C1606       C  0.78900715  0.62356843  0.41229182     0.19500
F1607       F  0.78382714  0.59395997  0.42252862    -0.13400
F1608       F  0.73457007  0.63789137  0.42188279    -0.15700
F1609       F  0.85391435  0.67210960  0.38429736    -0.15700
F1610       F  0.80448653  0.71559098  0.38304962    -0.13400
C1611       C  0.79864840  0.12016618  0.40968488     0.24700
C1612       C  0.80568319  0.08697717  0.40556714    -0.23500
C1613       C  0.83791244  0.07788254  0.39999902     0.19600
C1614       C  0.86290061  0.10112307  0.40014084     0.24600
C1615       C  0.85607655  0.13406770  0.40542129    -0.23400
C1616       C  0.82349191  0.14345138  0.40942753     0.19500
F1617       F  0.81564438  0.17503183  0.41418612    -0.13400
F1618       F  0.76790708  0.13011311  0.41498935    -0.15700
F1619       F  0.89388013  0.09107656  0.39576896    -0.15700
F1620       F  0.84553082  0.04631151  0.39500749    -0.13400
C1621       C  0.69820002  0.90358632  0.42299894     0.24700
C1622       C  0.72913615  0.91717760  0.41861109    -0.23500
C1623       C  0.75546977  0.89622193  0.41360248     0.19600
C1624       C  0.75086508  0.86230666  0.41305206     0.24600
C1625       C  0.71984419  0.84889119  0.41746268    -0.23400
C1626       C  0.69362767  0.86996004  0.42238861     0.19500
F1627       F  0.66312706  0.85818699  0.42617787    -0.13400
F1628       F  0.67188090  0.92279735  0.42747492    -0.15700
F1629       F  0.77679680  0.84269233  0.40836490    -0.15700
F1630       F  0.78565370  0.90844147  0.40930670    -0.13400
C1631       C  0.78883400  0.67647372  0.63803226     0.24700
C1632       C  0.75969488  0.66956325  0.62585894    -0.23500
C1633       C  0.75491677  0.63811711  0.61637897     0.19600
C1634       C  0.78032847  0.61528980  0.61668408     0.24600
C1635       C  0.81069141  0.62359606  0.62666611    -0.23400
C1636       C  0.81403922  0.65364426  0.63851180     0.19500
F1637       F  0.84224651  0.66155158  0.64977167    -0.13400
F1638       F  0.79353557  0.70588746  0.64868221    -0.15700
F1639       F  0.77590051  0.58607948  0.60569374    -0.15700
F1640       F  0.72660480  0.63022588  0.60526399    -0.13400
C1641       C  0.66210939  0.72754053  0.52401735     0.24700
C1642       C  0.69141098  0.72657733  0.53704930    -0.23500
C1643       C  0.72106152  0.72400099  0.52460332     0.19600
C1644       C  0.72169707  0.72515818  0.49981684     0.24600
C1645       C  0.69267170  0.72866115  0.48669382    -0.23400
C1646       C  0.66272624  0.72847587  0.49896992     0.19500
F1647       F  0.63421961  0.73127863  0.48687765    -0.13400
F1648       F  0.63307365  0.72975760  0.53546920    -0.15700
F1649       F  0.75105003  0.72369664  0.48867889    -0.15700
F1650       F  0.74980334  0.72128559  0.53647550    -0.13400
C1651       C  0.80262098  0.11225728  0.63171447     0.24700
C1652       C  0.81163834  0.07988026  0.62631167    -0.23500
C1653       C  0.84480443  0.07260638  0.62265703     0.19600
C1654       C  0.86813311  0.09751378  0.62296516     0.24600
C1655       C  0.85878638  0.13017495  0.62707994    -0.23400
C1656       C  0.82593036  0.13711722  0.63208658     0.19500
F1657       F  0.81611604  0.16814352  0.63684354    -0.13400
F1658       F  0.77105319  0.12011134  0.63620132    -0.15700
F1659       F  0.89958834  0.08978571  0.61792384    -0.15700
F1660       F  0.85457642  0.04168138  0.61752464    -0.13400
C1661       C  0.76114999  0.03761286  0.52734515     0.24700
C1662       C  0.73285975  0.03072348  0.54050150    -0.23500
C1663       C  0.70326425  0.02590483  0.52831253     0.19600
C1664       C  0.70244050  0.02623407  0.50329687     0.24600
C1665       C  0.73114613  0.03167077  0.49017983    -0.23400
C1666       C  0.76032834  0.03799936  0.50248834     0.19500
F1667       F  0.78834800  0.04398990  0.49039397    -0.13400
F1668       F  0.78985878  0.04348031  0.53860271    -0.15700
F1669       F  0.67418744  0.01881065  0.49194751    -0.15700
F1670       F  0.67567910  0.01856728  0.54052461    -0.13400
C1671       C  0.75768987  0.88836146  0.61138455     0.24700
C1672       C  0.73169869  0.91069197  0.60960161    -0.23500
C1673       C  0.69962789  0.89863767  0.60790588     0.19600
C1674       C  0.69365434  0.86520177  0.60773341     0.24600
C1675       C  0.71953201  0.84277206  0.60939949    -0.23400
C1676       C  0.75163777  0.85462747  0.61138806     0.19500
F1677       F  0.77721153  0.83364794  0.61301259    -0.13400
F1678       F  0.78893577  0.89907066  0.61272206    -0.15700
F1679       F  0.66223601  0.85492453  0.60630880    -0.15700
F1680       F  0.67363496  0.91919542  0.60686377    -0.13400
C1681       C  0.76247889  0.64832644  0.11818336     0.24700
C1682       C  0.72920289  0.64037887  0.11991585    -0.23500
C1683       C  0.72022976  0.60740472  0.12274644     0.19600
C1684       C  0.74394286  0.58284471  0.12311845     0.24600
C1685       C  0.77720806  0.59074759  0.12095809    -0.23400
C1686       C  0.78619173  0.62383402  0.11881588     0.19500
F1687       F  0.81794678  0.63262791  0.11656933    -0.13400
F1688       F  0.77221766  0.67972994  0.11496200    -0.15700
F1689       F  0.73410463  0.55126188  0.12486697    -0.15700
F1690       F  0.68840167  0.59869021  0.12459953    -0.13400
C1691       C  0.28768747  0.67436106  0.12300835     0.24700
C1692       C  0.32035813  0.66694240  0.12836140    -0.23500
C1693       C  0.32819171  0.63580557  0.13736520     0.19600
C1694       C  0.30428918  0.61171951  0.13896366     0.24600
C1695       C  0.27234109  0.61818442  0.13115879    -0.23400
C1696       C  0.26386766  0.65015122  0.12434723     0.19500
F1697       F  0.23308274  0.65751915  0.11725009    -0.13400
F1698       F  0.27905210  0.70438671  0.11484601    -0.15700
F1699       F  0.31284368  0.58162501  0.14708227    -0.15700
F1700       F  0.35923326  0.62811679  0.14368429    -0.13400
C1701       C  0.50684993  0.68741793  0.10963831     0.24700
C1702       C  0.49160930  0.71699316  0.10329726    -0.23500
C1703       C  0.51087005  0.74337023  0.09561114     0.19600
C1704       C  0.54462912  0.74060101  0.09489022     0.24600
C1705       C  0.56005162  0.71130348  0.10171791    -0.23400
C1706       C  0.54080965  0.68455182  0.10876722     0.19500
F1707       F  0.55479447  0.65591729  0.11551097    -0.13400
F1708       F  0.48905547  0.66157079  0.11739696    -0.15700
F1709       F  0.56215404  0.76708363  0.08794644    -0.15700
F1710       F  0.49717723  0.77226175  0.08907358    -0.13400
C1711       C  0.76979898  0.64987013  0.90910066     0.24700
C1712       C  0.73694368  0.64263384  0.90421904    -0.23500
C1713       C  0.72845175  0.61062419  0.89752119     0.19600
C1714       C  0.75196050  0.58597737  0.89698929     0.24600
C1715       C  0.78442049  0.59275960  0.90331188    -0.23400
C1716       C  0.79336131  0.62518891  0.90852180     0.19500
F1717       F  0.82459157  0.63285209  0.91426089    -0.13400
F1718       F  0.77894636  0.68040447  0.91578029    -0.15700
F1719       F  0.74265566  0.55526690  0.89086374    -0.15700
F1720       F  0.69717099  0.60285357  0.89203192    -0.13400
C1721       C  0.69673805  0.69570343  0.00042241     0.24700
C1722       C  0.68927608  0.72416903  0.98750939    -0.23500
C1723       C  0.68382100  0.75352791  0.99999928     0.19600
C1724       C  0.68256378  0.75341298  0.02506667     0.24600
C1725       C  0.68632268  0.72387802  0.03768057    -0.23400
C1726       C  0.69491281  0.69546634  0.02514533     0.19500
F1727       F  0.70006810  0.66684317  0.03682421    -0.13400
F1728       F  0.70410025  0.66739513  0.98898225    -0.15700
F1729       F  0.67494969  0.78140846  0.03678009    -0.15700
F1730       F  0.67701436  0.78154865  0.98803402    -0.13400
C1731       C  0.33192912  0.63542350  0.89623990     0.24700
C1732       C  0.32509245  0.66698981  0.90471483    -0.23500
C1733       C  0.29294617  0.67517568  0.91105849     0.19600
C1734       C  0.26855351  0.65142824  0.91064861     0.24600
C1735       C  0.27604312  0.61915559  0.90396580    -0.23400
C1736       C  0.30760870  0.61175715  0.89578085     0.19500
F1737       F  0.31540640  0.58122994  0.88816158    -0.13400
F1738       F  0.36243251  0.62705825  0.88906839    -0.15700
F1739       F  0.23819095  0.65963504  0.91819579    -0.15700
F1740       F  0.28549653  0.70552667  0.91919391    -0.13400
C1741       C  0.38427767  0.77313712  0.00152134     0.24700
C1742       C  0.37303568  0.74594576  0.98860732    -0.23500
C1743       C  0.35879624  0.71972231  0.00093191     0.19600
C1744       C  0.35847617  0.71920576  0.02574406     0.24600
C1745       C  0.37199599  0.74513348  0.03881379    -0.23400
C1746       C  0.38377215  0.77273495  0.02654249     0.19500
F1747       F  0.39758980  0.79785523  0.03866332    -0.13400
F1748       F  0.39853274  0.79860302  0.99006755    -0.15700
F1749       F  0.34630679  0.69251144  0.03701932    -0.15700
F1750       F  0.34663427  0.69367268  0.98887715    -0.13400
C1751       C  0.51315998  0.68540944  0.91753390     0.24700
C1752       C  0.49786921  0.71389246  0.92609515    -0.23500
C1753       C  0.51717925  0.73923370  0.93543301     0.19600
C1754       C  0.55096863  0.73675052  0.93540322     0.24600
C1755       C  0.56638413  0.70895305  0.92591633    -0.23400
C1756       C  0.54718968  0.68301921  0.91735679     0.19500
F1757       F  0.56126864  0.65594651  0.90787453    -0.13400
F1758       F  0.49534069  0.66031240  0.90859252    -0.15700
F1759       F  0.56855209  0.76207620  0.94428819    -0.15700
F1760       F  0.50352138  0.76702723  0.94413129    -0.13400
loop_ 
_geom_bond_atom_site_label_1 
_geom_bond_atom_site_label_2 
_geom_bond_distance 
_geom_bond_site_symmetry_2 
_ccdc_geom_bond_type 
In1           O3   2.206       .  S
In1           O4   2.252       .  S
In1          O12   2.208       .  S
In1           O6   2.277       .  S
In1           O8   2.245       .  S
In1           O9   2.203       .  S
In1          O10   2.238       .  S
In1          O13   2.218       .  S
C2            O8   1.264       .  A
C2           O10   1.256       .  A
C2          C158   1.466       .  S
O3           C11   1.258       .  A
O4           C11   1.262       .  A
C5           O12   1.259       .  A
C5            O6   1.267       .  A
C5         C1742   1.477       .  S
C7            O9   1.266       .  A
C7           O13   1.267       .  A
C7         C1732   1.469       .  S
C11        C1752   1.475       .  S
In14         O16   2.231       .  S
In14         O17   2.213       .  S
In14         O25   2.193       .  S
In14         O19   2.281       .  S
In14         O21   2.245       .  S
In14         O22   2.241       .  S
In14         O23   2.220       .  S
In14         O26   2.201       .  S
C15          O21   1.268       .  A
C15          O23   1.259       .  A
C15         C194   1.465       .  S
O16          C24   1.267       .  A
O17          C24   1.265       .  A
C18          O25   1.261       .  A
C18          O19   1.270       .  A
C18        C1722   1.481       .  S
C20          O22   1.265       .  A
C20          O26   1.260       .  A
C20        C1755   1.473       .  S
C24        C1712   1.477       .  S
In27         O29   2.220       .  S
In27         O30   2.212       .  S
In27         O38   2.222       .  S
In27         O32   2.270       .  S
In27         O34   2.236       .  S
In27         O35   2.249       .  S
In27         O36   2.235       .  S
In27         O39   2.210       .  S
C28          O34   1.264       .  A
C28          O36   1.257       .  A
C28         C330   1.463       .  S
O29          C37   1.266       .  A
O30          C37   1.264       .  A
C31          O38   1.260       .  A
C31          O32   1.265       .  A
C31        C1745   1.479       .  S
C33          O35   1.262       .  A
C33          O39   1.257       .  A
C33        C1702   1.474       .  S
C37        C1692   1.473       .  S
In40         O42   2.202       .  S
In40         O43   2.248       .  S
In40         O51   2.207       .  S
In40         O45   2.279       .  S
In40         O47   2.227       .  S
In40         O48   2.221       .  S
In40         O49   2.246       .  S
In40         O52   2.223       .  S
C41          O47   1.265       .  A
C41          O49   1.260       .  A
C41         C318   1.468       .  S
O42          C50   1.259       .  A
O43          C50   1.265       .  A
C44          O51   1.260       .  A
C44          O45   1.267       .  A
C44        C1725   1.479       .  S
C46          O48   1.265       .  A
C46          O52   1.265       .  A
C46        C1682   1.479       .  S
C50        C1705   1.475       .  S
In53         O55   2.196   1_545  S
In53         O56   2.270   1_545  S
In53         O64   2.224       .  S
In53         O58   2.265       .  S
In53         O60   2.238       .  S
In53         O61   2.239       .  S
In53         O62   2.245       .  S
In53         O65   2.221       .  S
C54          O60   1.265       .  A
C54          O62   1.261       .  A
C54         C146   1.472       .  S
O55          C63   1.257       .  A
O56          C63   1.267       .  A
C57          O64   1.262       .  A
C57          O58   1.267       .  A
C57        C1662   1.480       .  S
C59          O61   1.267       .  A
C59          O65   1.265       .  A
C59        C1652   1.481       .  S
C63        C1672   1.479       .  S
In66         O68   2.235       .  S
In66         O69   2.203       .  S
In66         O77   2.202       .  S
In66         O71   2.282       .  S
In66         O73   2.273       .  S
In66         O74   2.249       .  S
In66         O75   2.207       .  S
In66         O78   2.210       .  S
C67          O73   1.265       .  A
C67          O75   1.256       .  A
C67         C134   1.472       .  S
O68          C76   1.268       .  A
O69          C76   1.265       .  A
C70          O77   1.259       .  A
C70          O71   1.269       .  A
C70        C1642   1.484       .  S
C72          O74   1.263       .  A
C72          O78   1.260       .  A
C72        C1675   1.477       .  S
C76        C1632   1.474       .  S
In79         O81   2.222       .  S
In79         O82   2.222       .  S
In79         O90   2.218       .  S
In79         O84   2.269       .  S
In79         O86   2.258       .  S
In79         O87   2.254   1_545  S
In79         O88   2.229       .  S
In79         O91   2.192   1_545  S
C80          O86   1.268       .  A
C80          O88   1.260       .  A
C80         C258   1.476       .  S
O81          C89   1.267       .  A
O82          C89   1.267       .  A
C83          O90   1.262       .  A
C83          O84   1.270       .  A
C83        C1665   1.482       .  S
C85          O87   1.267       .  A
C85          O91   1.259       .  A
C85        C1622   1.476       .  S
C89        C1612   1.481       .  S
In92         O94   2.215       .  S
In92         O95   2.251       .  S
In92        O103   2.213       .  S
In92         O97   2.283       .  S
In92         O99   2.245       .  S
In92        O100   2.199       .  S
In92        O101   2.248       .  S
In92        O104   2.228       .  S
C93          O99   1.264       .  A
C93         O101   1.257       .  A
C93         C270   1.472       .  S
O94         C102   1.259       .  A
O95         C102   1.261       .  A
C96         O103   1.259       .  A
C96          O97   1.268       .  A
C96        C1645   1.485       .  S
C98         O100   1.263       .  A
C98         O104   1.266       .  A
C98        C1602   1.471       .  S
C102       C1625   1.476       .  S
C105        C106   1.546       .  S
C105        C111   1.535       .  S
C105        C109   1.532       .  S
C105       C1572   1.540       .  S
C106        H113   1.082       .  S
C106        C107   1.367       .  D
C107       C1592   1.486       .  S
C107        C108   1.541       .  S
C108        C112   1.536       .  S
C108        C110   1.547       .  S
C108        H114   1.111       .  S
C109        H115   1.086       .  S
C109        C110   1.371       .  D
C110        C363   1.476       .  S
C111        H116   1.087       .  S
C111        C112   1.361       .  D
C112       C1582   1.477       .  S
C117        C118   1.538       .  S
C117        C123   1.535   1_545  S
C117        C121   1.550       .  S
C117       C1552   1.539       .  S
C118        H125   1.086       .  S
C118        C119   1.367       .  D
C119       C1562   1.488       .  S
C119        C120   1.533       .  S
C120        C124   1.535   1_545  S
C120        C122   1.537       .  S
C120        H126   1.110       .  S
C121        H127   1.081       .  S
C121        C122   1.378       .  D
C122        C350   1.465       .  S
C123        H128   1.088       .  S
C123        C124   1.355       .  D
C124       C1595   1.475       .  S
C129        C130   1.534       .  S
C129        C135   1.549       .  S
C129        C133   1.527       .  S
C129       C1535   1.533       .  S
C130        H137   1.087       .  S
C130        C131   1.359       .  D
C131       C1585   1.475       .  S
C131        C132   1.537       .  S
C132        C136   1.541       .  S
C132        C134   1.544       .  S
C132        H138   1.111       .  S
C133        H139   1.086       .  S
C133        C134   1.370       .  D
C135        H140   1.083       .  S
C135        C136   1.369       .  D
C136       C1542   1.488       .  S
C141        C142   1.533       .  S
C141        C147   1.533   1_565  S
C141        C145   1.549   1_565  S
C141       C1522   1.540       .  S
C142        H149   1.088       .  S
C142        C143   1.355       .  D
C143       C1545   1.481       .  S
C143        C144   1.541       .  S
C144        C148   1.538   1_565  S
C144        C146   1.544   1_565  S
C144        H150   1.110       .  S
C145        H151   1.083       .  S
C145        C146   1.380       .  D
C147        H152   1.087       .  S
C147        C148   1.363       .  D
C148       C1565   1.489       .  S
C153        C154   1.539       .  S
C153        C159   1.547       .  S
C153        C157   1.538       .  S
C153       C1575   1.542       .  S
C154        H161   1.086       .  S
C154        C155   1.363       .  D
C155       C1502   1.492       .  S
C155        C156   1.540       .  S
C156        C160   1.528       .  S
C156        C158   1.536       .  S
C156        H162   1.111       .  S
C157        H163   1.085       .  S
C157        C158   1.373       .  D
C159        H164   1.082       .  S
C159        C160   1.364       .  D
C160       C1512   1.472       .  S
C165        C166   1.533   1_545  S
C165        C171   1.537       .  S
C165        C169   1.546       .  S
C165       C1555   1.539       .  S
C166        H173   1.087       .  S
C166        C167   1.356       .  D
C167       C1515   1.467       .  S
C167        C168   1.529   1_565  S
C168        C172   1.539       .  S
C168        C170   1.542       .  S
C168        H174   1.111   1_545  S
C169        H175   1.082       .  S
C169        C170   1.379       .  D
C170        C202   1.467       .  S
C171        H176   1.087       .  S
C171        C172   1.364       .  D
C172       C1495   1.489       .  S
C177        C178   1.542   1_565  S
C177        C183   1.527       .  S
C177        C181   1.547   1_565  S
C177       C1525   1.539       .  S
C178        H185   1.087       .  S
C178        C179   1.365   1_545  D
C179       C1492   1.488   1_565  S
C179        C180   1.535       .  S
C180        C184   1.533       .  S
C180        C182   1.541   1_565  S
C180        H186   1.111       .  S
C181        H187   1.084       .  S
C181        C182   1.383       .  D
C182        C215   1.469       .  S
C183        H188   1.088       .  S
C183        C184   1.351       .  D
C184       C1482   1.469       .  S
C189        C190   1.547       .  S
C189        C195   1.540       .  S
C189        C193   1.532       .  S
C189       C1532   1.537       .  S
C190        H197   1.084       .  S
C190        C191   1.362       .  D
C191       C1485   1.472       .  S
C191        C192   1.528       .  S
C192        C196   1.542       .  S
C192        C194   1.541       .  S
C192        H198   1.111       .  S
C193        H199   1.085       .  S
C193        C194   1.369       .  D
C195        H200   1.086       .  S
C195        C196   1.363       .  D
C196       C1505   1.490       .  S
In201       O203   2.228       .  S
In201       O204   2.211       .  S
In201       O212   2.214       .  S
In201       O206   2.278       .  S
In201       O208   2.243       .  S
In201       O209   2.257       .  S
In201       O210   2.224       .  S
In201       O213   2.194       .  S
C202        O208   1.266       .  A
C202        O210   1.258       .  A
O203        C211   1.267       .  A
O204        C211   1.266       .  A
C205        O212   1.261       .  A
C205        O206   1.268       .  A
C205       C1465   1.484       .  S
C207        O209   1.265       .  A
C207        O213   1.258       .  A
C207       C1472   1.476       .  S
C211       C1455   1.478       .  S
In214       O216   2.208       .  S
In214       O217   2.253       .  S
In214       O225   2.213       .  S
In214       O219   2.273       .  S
In214       O221   2.247       .  S
In214       O222   2.204       .  S
In214       O223   2.234       .  S
In214       O226   2.220       .  S
C215        O221   1.264       .  A
C215        O223   1.258       .  A
O216        C224   1.259       .  A
O217        C224   1.262       .  A
C218        O225   1.260       .  A
C218        O219   1.267       .  A
C218       C1442   1.485       .  S
C220        O222   1.263       .  A
C220        O226   1.265       .  A
C220       C1432   1.472       .  S
C224       C1475   1.476       .  S
In227       O229   2.196       .  S
In227       O230   2.235       .  S
In227       O238   2.207       .  S
In227       O232   2.281       .  S
In227       O234   2.242       .  S
In227       O235   2.196       .  S
In227       O236   2.233       .  S
In227       O239   2.221       .  S
C228        O234   1.266       .  A
C228        O236   1.257       .  A
C228        C342   1.467       .  S
O229        C237   1.259       .  A
O230        C237   1.262       .  A
C231        O238   1.260       .  A
C231        O232   1.269       .  A
C231       C1462   1.485       .  S
C233        O235   1.264       .  A
C233        O239   1.267       .  A
C233       C1415   1.471       .  S
C237       C1425   1.464       .  S
In240       O242   2.221       .  S
In240       O243   2.191       .  S
In240       O251   2.207       .  S
In240       O245   2.277       .  S
In240       O247   2.237       .  S
In240       O248   2.235       .  S
In240       O249   2.247       .  S
In240       O252   2.203       .  S
C241        O247   1.267       .  A
C241        O249   1.257       .  A
C241        C306   1.470       .  S
O242        C250   1.266       .  A
O243        C250   1.264       .  A
C244        O251   1.260       .  A
C244        O245   1.270       .  A
C244       C1445   1.487       .  S
C246        O248   1.263       .  A
C246        O252   1.260       .  A
C246       C1422   1.466       .  S
C250       C1405   1.468       .  S
C253        C254   1.527   1_565  S
C253        C259   1.542       .  S
C253        C257   1.543   1_565  S
C253       C1375   1.540       .  S
C254        H261   1.089       .  S
C254        C255   1.353   1_545  D
C255       C1392   1.479   1_565  S
C255        C256   1.534       .  S
C256        C260   1.540       .  S
C256        C258   1.551   1_565  S
C256        H262   1.111       .  S
C257        H263   1.084       .  S
C257        C258   1.385       .  D
C259        H264   1.087       .  S
C259        C260   1.362       .  D
C260       C1382   1.486       .  S
C265        C266   1.536       .  S
C265        C271   1.532       .  S
C265        C269   1.551       .  S
C265       C1352   1.541       .  S
C266        H273   1.087       .  S
C266        C267   1.356       .  D
C267       C1385   1.480       .  S
C267        C268   1.540       .  S
C268        C272   1.535       .  S
C268        C270   1.540       .  S
C268        H274   1.110       .  S
C269        H275   1.082       .  S
C269        C270   1.383       .  D
C271        H276   1.087       .  S
C271        C272   1.363       .  D
C272       C1362   1.488       .  S
C277        C278   1.535       .  S
C277        C283   1.535       .  S
C277        C281   1.549       .  S
C277       C1332   1.539       .  S
C278        H285   1.087       .  S
C278        C279   1.363       .  D
C279       C1365   1.487       .  S
C279        C280   1.531       .  S
C280        C284   1.537       .  S
C280        C282   1.539       .  S
C280        H286   1.110       .  S
C281        H287   1.083       .  S
C281        C282   1.381       .  D
C282        C389   1.467       .  S
C283        H288   1.087       .  S
C283        C284   1.355       .  D
C284       C1342   1.476       .  S
C289        C290   1.548   1_545  S
C289        C295   1.535       .  S
C289        C293   1.539       .  S
C289       C1325   1.548       .  S
C290        H297   1.084       .  S
C290        C291   1.364       .  D
C291       C1345   1.477       .  S
C291        C292   1.532   1_565  S
C292        C296   1.535       .  S
C292        C294   1.541       .  S
C292        H298   1.111       .  S
C293        H299   1.085       .  S
C293        C294   1.378       .  D
C294        C376   1.477       .  S
C295        H300   1.086       .  S
C295        C296   1.361       .  D
C296       C1395   1.476       .  S
C301        C302   1.535       .  S
C301        C307   1.536       .  S
C301        C305   1.551   1_565  S
C301       C1372   1.542       .  S
C302        H309   1.087       .  S
C302        C303   1.362       .  D
C303       C1305   1.483       .  S
C303        C304   1.534       .  S
C304        C308   1.536       .  S
C304        C306   1.537   1_565  S
C304        H310   1.110       .  S
C305        H311   1.083       .  S
C305        C306   1.384       .  D
C307        H312   1.088   1_565  S
C307        C308   1.356       .  D
C308       C1312   1.484       .  S
C313        C314   1.534       .  S
C313        C319   1.540       .  S
C313        C317   1.550       .  S
C313       C1355   1.540       .  S
C314        H321   1.088       .  S
C314        C315   1.353       .  D
C315       C1292   1.475       .  S
C315        C316   1.534       .  S
C316        C320   1.529       .  S
C316        C318   1.539       .  S
C316        H322   1.111       .  S
C317        H323   1.082       .  S
C317        C318   1.381       .  D
C319        H324   1.087       .  S
C319        C320   1.363       .  D
C320       C1302   1.478       .  S
C325        C326   1.533       .  S
C325        C331   1.538       .  S
C325        C329   1.547       .  S
C325       C1335   1.537       .  S
C326        H333   1.088       .  S
C326        C327   1.360       .  D
C327       C1282   1.477       .  S
C327        C328   1.528       .  S
C328        C332   1.534       .  S
C328        C330   1.540       .  S
C328        H334   1.111       .  S
C329        H335   1.083       .  S
C329        C330   1.380       .  D
C331        H336   1.088       .  S
C331        C332   1.357       .  D
C332       C1295   1.476       .  S
C337        C338   1.542       .  S
C337        C343   1.546   1_545  S
C337        C341   1.540       .  S
C337       C1322   1.546       .  S
C338        H345   1.086       .  S
C338        C339   1.365       .  D
C339       C1315   1.482       .  S
C339        C340   1.535       .  S
C340        C344   1.528   1_545  S
C340        C342   1.531       .  S
C340        H346   1.111   1_545  S
C341        H347   1.085       .  S
C341        C342   1.371       .  D
C343        H348   1.082       .  S
C343        C344   1.368       .  D
C344       C1285   1.479       .  S
In349       O351   2.228       .  S
In349       O352   2.214       .  S
In349       O360   2.215       .  S
In349       O354   2.274       .  S
In349       O356   2.226       .  S
In349       O357   2.249   1_545  S
In349       O358   2.244       .  S
In349       O361   2.212   1_545  S
C350        O356   1.263       .  A
C350        O358   1.259       .  A
O351        C359   1.265       .  A
O352        C359   1.263       .  A
C353        O360   1.260       .  A
C353        O354   1.265       .  A
C353       C1262   1.482       .  S
C355        O357   1.263       .  A
C355        O361   1.258       .  A
C355       C1275   1.471       .  S
C359       C1252   1.476       .  S
In362       O364   2.196       .  S
In362       O365   2.239       .  S
In362       O373   2.199       .  S
In362       O367   2.280       .  S
In362       O369   2.265       .  S
In362       O370   2.219       .  S
In362       O371   2.215       .  S
In362       O374   2.233       .  S
C363        O369   1.269       .  A
C363        O371   1.260       .  A
O364        C372   1.261       .  A
O365        C372   1.267       .  A
C366        O373   1.260       .  A
C366        O367   1.271       .  A
C366       C1242   1.481       .  S
C368        O370   1.266       .  A
C368        O374   1.268       .  A
C368       C1232   1.484       .  S
C372       C1272   1.470       .  S
In375       O377   2.207   1_545  S
In375       O378   2.248       .  S
In375       O386   2.201       .  S
In375       O380   2.295       .  S
In375       O382   2.264       .  S
In375       O383   2.202       .  S
In375       O384   2.235       .  S
In375       O387   2.230       .  S
C376        O382   1.266       .  A
C376        O384   1.257       .  A
O377        C385   1.261       .  A
O378        C385   1.262   1_545  A
C379        O386   1.257       .  A
C379        O380   1.269       .  A
C379       C1265   1.482       .  S
C381        O383   1.263       .  A
C381        O387   1.266       .  A
C381       C1215   1.475       .  S
C385       C1222   1.475       .  S
In388       O390   2.205       .  S
In388       O391   2.215       .  S
In388       O399   2.217       .  S
In388       O393   2.257       .  S
In388       O395   2.223       .  S
In388       O396   2.257       .  S
In388       O397   2.238       .  S
In388       O400   2.181       .  S
C389        O395   1.268       .  A
C389        O397   1.262       .  A
O390        C398   1.265       .  A
O391        C398   1.269       .  A
C392        O399   1.264       .  A
C392        O393   1.269       .  A
C392       C1245   1.483       .  S
C394        O396   1.270       .  A
C394        O400   1.260       .  A
C394       C1225   1.476       .  S
C398       C1202   1.470       .  S
In401       O403   2.231       .  S
In401       O404   2.200       .  S
In401       O412   2.202       .  S
In401       O406   2.299       .  S
In401       O408   2.243       .  S
In401       O409   2.249       .  S
In401       O410   2.247       .  S
In401       O413   2.217       .  S
C402        O408   1.264       .  A
C402        O410   1.256       .  A
C402        C582   1.471       .  S
O403        C411   1.266       .  A
O404        C411   1.262       .  A
C405        O412   1.259       .  A
C405        O406   1.269       .  A
C405       C1182   1.493       .  S
C407        O409   1.261       .  A
C407        O413   1.259       .  A
C407       C1195   1.469       .  S
C411       C1435   1.472       .  S
In414       O416   2.207       .  S
In414       O417   2.250       .  S
In414       O425   2.206       .  S
In414       O419   2.282       .  S
In414       O421   2.232       .  S
In414       O422   2.216       .  S
In414       O423   2.236       .  S
In414       O426   2.222       .  S
C415        O421   1.266       .  A
C415        O423   1.258       .  A
C415        C570   1.467       .  S
O416        C424   1.260       .  A
O417        C424   1.265       .  A
C418        O425   1.261       .  A
C418        O419   1.269       .  A
C418       C1172   1.487       .  S
C420        O422   1.265       .  A
C420        O426   1.265       .  A
C420       C1715   1.476       .  S
C424       C1192   1.467       .  S
In427       O429   2.208       .  S
In427       O430   2.251       .  S
In427       O438   2.198       .  S
In427       O432   2.296       .  S
In427       O434   2.241       .  S
In427       O435   2.202       .  S
In427       O436   2.236       .  S
In427       O439   2.225       .  S
C428        O434   1.266       .  A
C428        O436   1.258       .  A
C428        C706   1.470       .  S
O429        C437   1.261       .  A
O430        C437   1.264       .  A
C431        O438   1.259       .  A
C431        O432   1.269       .  A
C431       C1185   1.492       .  S
C433        O435   1.264       .  A
C433        O439   1.266       .  A
C433       C1402   1.470       .  S
C437       C1162   1.478       .  S
In440       O442   2.217       .  S
In440       O443   2.231       .  S
In440       O451   2.210       .  S
In440       O445   2.271       .  S
In440       O447   2.243       .  S
In440       O448   2.258       .  S
In440       O449   2.241       .  S
In440       O452   2.195       .  S
C441        O447   1.266       .  A
C441        O449   1.261       .  A
C441        C742   1.473       .  S
O442        C450   1.265       .  A
O443        C450   1.267       .  A
C444        O451   1.262       .  A
C444        O445   1.269       .  A
C444       C1175   1.485       .  S
C446        O448   1.267       .  A
C446        O452   1.259       .  A
C446       C1165   1.479       .  S
C450       C1685   1.481       .  S
In453       O455   2.230       .  S
In453       O456   2.235       .  S
In453       O464   2.205       .  S
In453       O458   2.277       .  S
In453       O460   2.251       .  S
In453       O461   2.263       .  S
In453       O462   2.234       .  S
In453       O465   2.195       .  S
C454        O460   1.267       .  A
C454        O462   1.261       .  A
C454        C534   1.476       .  S
O455        C463   1.265       .  A
O456        C463   1.267       .  A
C457        O464   1.262       .  A
C457        O458   1.270       .  A
C457       C1145   1.488       .  S
C459        O461   1.268       .  A
C459        O465   1.260       .  A
C459       C1155   1.481       .  S
C463       C1235   1.485       .  S
In466       O468   2.197       .  S
In466       O469   2.261       .  S
In466       O477   2.225       .  S
In466       O471   2.271       .  S
In466       O473   2.244       .  S
In466       O474   2.208       .  S
In466       O475   2.236       .  S
In466       O478   2.231       .  S
C467        O473   1.267       .  A
C467        O475   1.259       .  A
C467        C546   1.472       .  S
O468        C476   1.259       .  A
O469        C476   1.267       .  A
C470        O477   1.262       .  A
C470        O471   1.269       .  A
C470       C1132   1.489       .  S
C472        O474   1.266       .  A
C472        O478   1.266       .  A
C472       C1635   1.474       .  S
C476       C1152   1.480       .  S
In479       O481   2.184       .  S
In479       O482   2.239       .  S
In479       O490   2.200       .  S
In479       O484   2.282       .  S
In479       O486   2.246       .  S
In479       O487   2.202       .  S
In479       O488   2.219       .  S
In479       O491   2.225       .  S
C480        O486   1.268       .  A
C480        O488   1.258       .  A
C480        C670   1.468       .  S
O481        C489   1.260       .  A
O482        C489   1.265       .  A
C483        O490   1.261       .  A
C483        O484   1.270       .  A
C483       C1142   1.488       .  S
C485        O487   1.264       .  A
C485        O491   1.267       .  A
C485       C1205   1.470       .  S
C489       C1122   1.463       .  S
In492       O494   2.223       .  S
In492       O495   2.209       .  S
In492       O503   2.222       .  S
In492       O497   2.283       .  S
In492       O499   2.242       .  S
In492       O500   2.256       .  S
In492       O501   2.248       .  S
In492       O504   2.186       .  S
C493        O499   1.264       .  A
C493        O501   1.258       .  A
C493        C658   1.472       .  S
O494        C502   1.266       .  A
O495        C502   1.264       .  A
C496        O503   1.260       .  A
C496        O497   1.268       .  A
C496       C1135   1.488       .  S
C498        O500   1.263       .  A
C498        O504   1.258       .  A
C498       C1125   1.466       .  S
C502       C1605   1.472       .  S
C505        C506   1.533       .  S
C505        C511   1.531       .  S
C505        C509   1.547       .  S
C505       C1092   1.541       .  S
C506        H513   1.087       .  S
C506        C507   1.366       .  D
C507       C1105   1.492       .  S
C507        C508   1.539       .  S
C508        C512   1.547       .  S
C508        C510   1.547       .  S
C508        H514   1.109       .  S
C509        H515   1.082       .  S
C509        C510   1.379       .  D
C510        C763   1.474       .  S
C511        H516   1.088   1_655  S
C511        C512   1.354       .  D
C512       C1112   1.484   1_655  S
C517        C518   1.548       .  S
C517        C523   1.539       .  S
C517        C521   1.538       .  S
C517       C1072   1.545       .  S
C518        H525   1.084       .  S
C518        C519   1.366       .  D
C519       C1115   1.485       .  S
C519        C520   1.534       .  S
C520        C524   1.529       .  S
C520        C522   1.537       .  S
C520        H526   1.111       .  S
C521        H527   1.085       .  S
C521        C522   1.375       .  D
C522        C750   1.470       .  S
C523        H528   1.086       .  S
C523        C524   1.362       .  D
C524       C1085   1.470       .  S
C529        C530   1.524       .  S
C529        C535   1.542       .  S
C529        C533   1.544       .  S
C529       C1052   1.538       .  S
C530        H537   1.089       .  S
C530        C531   1.352       .  D
C531       C1082   1.475       .  S
C531        C532   1.535       .  S
C532        C536   1.539       .  S
C532        C534   1.551       .  S
C532        H538   1.111       .  S
C533        H539   1.083       .  S
C533        C534   1.384       .  D
C535        H540   1.087       .  S
C535        C536   1.361       .  D
C536       C1062   1.485       .  S
C541        C542   1.534       .  S
C541        C547   1.536       .  S
C541        C545   1.549       .  S
C541       C1042   1.544       .  S
C542        H549   1.088       .  S
C542        C543   1.355       .  D
C543       C1065   1.481       .  S
C543        C544   1.540       .  S
C544        C548   1.537       .  S
C544        C546   1.542       .  S
C544        H550   1.109       .  S
C545        H551   1.082       .  S
C545        C546   1.382       .  D
C547        H552   1.086       .  S
C547        C548   1.367       .  D
C548       C1102   1.493       .  S
C553        C554   1.533       .  S
C553        C559   1.537       .  S
C553        C557   1.548       .  S
C553       C1055   1.539       .  S
C554        H561   1.087       .  S
C554        C555   1.361       .  D
C555       C1022   1.475       .  S
C555        C556   1.531       .  S
C556        C560   1.537       .  S
C556        C558   1.539       .  S
C556        H562   1.111       .  S
C557        H563   1.082       .  S
C557        C558   1.382       .  D
C558        C615   1.468       .  S
C559        H564   1.088       .  S
C559        C560   1.357       .  D
C560       C1032   1.485       .  S
C565        C566   1.538       .  S
C565        C571   1.539       .  S
C565        C569   1.549       .  S
C565       C1045   1.543       .  S
C566        H573   1.088       .  S
C566        C567   1.356       .  D
C567       C1012   1.477       .  S
C567        C568   1.531       .  S
C568        C572   1.526       .  S
C568        C570   1.536       .  S
C568        H574   1.111       .  S
C569        H575   1.082       .  S
C569        C570   1.382       .  D
C571        H576   1.087       .  S
C571        C572   1.364       .  D
C572       C1025   1.474       .  S
C577        C578   1.535       .  S
C577        C583   1.535       .  S
C577        C581   1.549       .  S
C577       C1095   1.540       .  S
C578        H585   1.087       .  S
C578        C579   1.362       .  D
C579       C1002   1.479   1_655  S
C579        C580   1.531       .  S
C580        C584   1.533       .  S
C580        C582   1.541       .  S
C580        H586   1.111       .  S
C581        H587   1.083       .  S
C581        C582   1.384       .  D
C583        H588   1.088       .  S
C583        C584   1.355       .  D
C584       C1015   1.476       .  S
C589        C590   1.540       .  S
C589        C595   1.542       .  S
C589        C593   1.537       .  S
C589       C1075   1.545       .  S
C590        H597   1.086       .  S
C590        C591   1.365       .  D
C591       C1035   1.484       .  S
C591        C592   1.539       .  S
C592        C596   1.534       .  S
C592        C594   1.537       .  S
C592        H598   1.111       .  S
C593        H599   1.086       .  S
C593        C594   1.371       .  D
C594        C602   1.470       .  S
C595        H600   1.081       .  S
C595        C596   1.368       .  D
C596       C1005   1.483       .  S
In601       O603   2.193       .  S
In601       O604   2.250       .  S
In601       O612   2.212       .  S
In601       O606   2.278       .  S
In601       O608   2.250       .  S
In601       O609   2.218       .  S
In601       O610   2.228       .  S
In601       O613   2.230       .  S
C602        O608   1.267       .  A
C602        O610   1.259       .  A
O603        C611   1.260       .  A
O604        C611   1.266       .  A
C605        O612   1.261       .  A
C605        O606   1.269       .  A
C605        C982   1.489       .  S
C607        O609   1.265       .  A
C607        O613   1.266       .  A
C607       C1452   1.479       .  S
C611        C992   1.471       .  S
In614       O616   2.229       .  S
In614       O617   2.195       .  S
In614       O625   2.202       .  S
In614       O619   2.290       .  S
In614       O621   2.236       .  S
In614       O622   2.243       .  S
In614       O623   2.241       .  S
In614       O626   2.204       .  S
C615        O621   1.265       .  A
C615        O623   1.257       .  A
O616        C624   1.267       .  A
O617        C624   1.263       .  A
C618        O625   1.259       .  A
C618        O619   1.269       .  A
C618        C972   1.489       .  S
C620        O622   1.263       .  A
C620        O626   1.260       .  A
C620        C995   1.469       .  S
C624       C1735   1.471       .  S
In627       O629   2.219       .  S
In627       O630   2.204       .  S
In627       O638   2.213       .  S
In627       O632   2.273       .  S
In627       O634   2.235       .  S
In627       O635   2.242       .  S
In627       O636   2.233       .  S
In627       O639   2.189       .  S
C628        O634   1.266       .  A
C628        O636   1.260       .  A
C628        C718   1.466       .  S
O629        C637   1.266       .  A
O630        C637   1.265       .  A
C631        O638   1.261       .  A
C631        O632   1.269       .  A
C631        C985   1.486       .  S
C633        O635   1.265       .  A
C633        O639   1.259       .  A
C633        C962   1.471       .  S
C637       C1412   1.472       .  S
In640       O642   2.196       .  S
In640       O643   2.244       .  S
In640       O651   2.202       .  S
In640       O645   2.283       .  S
In640       O647   2.249       .  S
In640       O648   2.205       .  S
In640       O649   2.221       .  S
In640       O652   2.223       .  S
C641        O647   1.265       .  A
C641        O649   1.258       .  A
C641        C730   1.466       .  S
O642        C650   1.259       .  A
O643        C650   1.263       .  A
C644        O651   1.259       .  A
C644        O645   1.268       .  A
C644        C975   1.488       .  S
C646        O648   1.264       .  A
C646        O652   1.267       .  A
C646       C1695   1.472       .  S
C650        C965   1.471       .  S
C653        C654   1.535       .  S
C653        C659   1.535       .  S
C653        C657   1.549       .  S
C653        C935   1.538       .  S
C654        H661   1.087       .  S
C654        C655   1.363       .  D
C655        C942   1.484       .  S
C655        C656   1.536       .  S
C656        C660   1.537       .  S
C656        C658   1.541       .  S
C656        H662   1.110       .  S
C657        H663   1.083       .  S
C657        C658   1.381       .  D
C659        H664   1.088       .  S
C659        C660   1.354       .  D
C660        C952   1.478       .  S
C665        C666   1.541       .  S
C665        C671   1.542       .  S
C665        C669   1.533       .  S
C665        C912   1.537       .  S
C666        H673   1.086       .  S
C666        C667   1.361       .  D
C667        C955   1.478       .  S
C667        C668   1.538       .  S
C668        C672   1.534       .  S
C668        C670   1.537       .  S
C668        H674   1.110       .  S
C669        H675   1.085       .  S
C669        C670   1.369       .  D
C671        H676   1.084       .  S
C671        C672   1.370       .  D
C672        C922   1.485       .  S
C677        C678   1.542       .  S
C677        C683   1.542       .  S
C677        C681   1.542       .  S
C677        C892   1.550       .  S
C678        H685   1.086       .  S
C678        C679   1.365       .  D
C679        C905   1.482   1_655  S
C679        C680   1.535       .  S
C680        C684   1.537       .  S
C680        C682   1.536       .  S
C680        H686   1.110       .  S
C681        H687   1.086       .  S
C681        C682   1.372       .  D
C682        C789   1.478       .  S
C683        H688   1.082       .  S
C683        C684   1.370       .  D
C684        C945   1.488       .  S
C689        C690   1.534       .  S
C689        C695   1.539       .  S
C689        C693   1.540       .  S
C689        C885   1.537       .  S
C690        H697   1.087       .  S
C690        C691   1.359       .  D
C691        C925   1.478       .  S
C691        C692   1.528       .  S
C692        C696   1.539       .  S
C692        C694   1.547       .  S
C692        H698   1.111       .  S
C693        H699   1.084       .  S
C693        C694   1.382       .  D
C694        C776   1.470       .  S
C695        H700   1.087       .  S
C695        C696   1.358       .  D
C696        C902   1.481       .  S
C701        C702   1.545       .  S
C701        C707   1.539       .  S
C701        C705   1.543       .  S
C701        C895   1.550       .  S
C702        H709   1.084       .  S
C702        C703   1.371       .  D
C703        C865   1.498       .  S
C703        C704   1.539       .  S
C704        C708   1.532       .  S
C704        C706   1.533       .  S
C704        H710   1.110       .  S
C705        H711   1.085       .  S
C705        C706   1.375       .  D
C707        H712   1.084       .  S
C707        C708   1.360       .  D
C708        C872   1.472   1_655  S
C713        C714   1.540       .  S
C713        C719   1.534       .  S
C713        C717   1.542       .  S
C713        C882   1.537       .  S
C714        H721   1.087       .  S
C714        C715   1.362       .  D
C715        C875   1.482       .  S
C715        C716   1.534       .  S
C716        C720   1.537       .  S
C716        C718   1.547       .  S
C716        H722   1.111       .  S
C717        H723   1.083       .  S
C717        C718   1.380       .  D
C719        H724   1.088       .  S
C719        C720   1.355       .  D
C720        C852   1.484       .  S
C725        C726   1.538       .  S
C725        C731   1.546       .  S
C725        C729   1.531       .  S
C725        C915   1.537       .  S
C726        H733   1.087       .  S
C726        C727   1.360       .  D
C727        C855   1.482       .  S
C727        C728   1.538       .  S
C728        C732   1.537       .  S
C728        C730   1.539       .  S
C728        H734   1.111       .  S
C729        H735   1.086       .  S
C729        C730   1.368       .  D
C731        H736   1.083       .  S
C731        C732   1.370       .  D
C732        C842   1.483       .  S
C737        C738   1.528       .  S
C737        C743   1.531       .  S
C737        C741   1.549       .  S
C737        C932   1.539       .  S
C738        H745   1.088       .  S
C738        C739   1.356       .  D
C739        C845   1.478       .  S
C739        C740   1.541       .  S
C740        C744   1.546       .  S
C740        C742   1.546       .  S
C740        H746   1.110       .  S
C741        H747   1.082       .  S
C741        C742   1.383       .  D
C743        H748   1.087       .  S
C743        C744   1.362       .  D
C744        C862   1.498       .  S
In749       O751   2.214       .  S
In749       O752   2.234       .  S
In749       O760   2.207       .  S
In749       O754   2.284       .  S
In749       O756   2.246       .  S
In749       O757   2.207       .  S
In749       O758   2.235       .  S
In749       O761   2.227       .  S
C750        O756   1.264       .  A
C750        O758   1.257       .  A
O751        C759   1.259       .  A
O752        C759   1.262       .  A
C753        O760   1.258       .  A
C753        O754   1.267       .  A
C753        C822   1.477       .  S
C755        O757   1.264       .  A
C755        O761   1.267       .  A
C755       C1255   1.475       .  S
C759        C832   1.470       .  S
In762       O764   2.226       .  S
In762       O765   2.221       .  S
In762       O773   2.216       .  S
In762       O767   2.275       .  S
In762       O769   2.248       .  S
In762       O770   2.233       .  S
In762       O771   2.235       .  S
In762       O774   2.196       .  S
C763        O769   1.268       .  A
C763        O771   1.261       .  A
O764        C772   1.267       .  A
O765        C772   1.265       .  A
C766        O773   1.260       .  A
C766        O767   1.269       .  A
C766        C812   1.484       .  S
C768        O770   1.266       .  A
C768        O774   1.260       .  A
C768        C835   1.466   1_655  S
C772       C1655   1.479       .  S
In775       O777   2.238       .  S
In775       O778   2.194       .  S
In775       O786   2.204       .  S
In775       O780   2.280       .  S
In775       O782   2.251       .  S
In775       O783   2.249       .  S
In775       O784   2.235       .  S
In775       O787   2.216       .  S
C776        O782   1.264       .  A
C776        O784   1.256       .  A
O777        C785   1.268       .  A
O778        C785   1.263       .  A
C779        O786   1.259       .  A
C779        O780   1.268       .  A
C779        C825   1.481       .  S
C781        O783   1.261       .  A
C781        O787   1.259       .  A
C781        C802   1.474       .  S
C785       C1212   1.475       .  S
In788       O790   2.200       .  S
In788       O791   2.258       .  S
In788       O799   2.224       .  S
In788       O793   2.270       .  S
In788       O795   2.250       .  S
In788       O796   2.238       .  S
In788       O797   2.251       .  S
In788       O800   2.218       .  S
C789        O795   1.266       .  A
C789        O797   1.261       .  A
O790        C798   1.259       .  A
O791        C798   1.266       .  A
C792        O799   1.262       .  A
C792        O793   1.268       .  A
C792        C815   1.487       .  S
C794        O796   1.267       .  A
C794        O800   1.265       .  A
C794       C1615   1.482       .  S
C798        C805   1.476   1_655  S
C801        C802   1.408       .  A
C801        C806   1.400       .  A
C801        F808   1.358       .  S
C802        C803   1.405       .  A
C803        C804   1.391       .  A
C803        F810   1.359       .  S
C804        C805   1.408       .  A
C804        F809   1.358       .  S
C805        C806   1.406       .  A
C806        F807   1.357       .  S
C811        C812   1.407       .  A
C811        C816   1.397       .  A
C811        F818   1.359       .  S
C812        C813   1.407       .  A
C813        C814   1.407       .  A
C813        F820   1.357       .  S
C814        C815   1.410       .  A
C814        F819   1.357       .  S
C815        C816   1.408       .  A
C816        F817   1.358       .  S
C821        C822   1.407       .  A
C821        C826   1.409       .  A
C821        F828   1.357       .  S
C822        C823   1.404       .  A
C823        C824   1.392       .  A
C823        F830   1.359       .  S
C824        C825   1.406       .  A
C824        F829   1.359       .  S
C825        C826   1.409       .  A
C826        F827   1.357       .  S
C831        C832   1.406       .  A
C831        C836   1.390       .  A
C831        F838   1.359       .  S
C832        C833   1.407       .  A
C833        C834   1.396       .  A
C833        F840   1.358       .  S
C834        C835   1.403       .  A
C834        F839   1.358       .  S
C835        C836   1.406       .  A
C836        F837   1.359       .  S
C841        C842   1.405       .  A
C841        C846   1.395       .  A
C841        F848   1.354       .  S
C842        C843   1.406       .  A
C843        C844   1.400       .  A
C843        F850   1.358       .  S
C844        C845   1.407   1_455  A
C844        F849   1.358   1_455  S
C845        C846   1.401   1_655  A
C846        F847   1.353       .  S
C851        C852   1.407       .  A
C851        C856   1.389       .  A
C851        F858   1.359       .  S
C852        C853   1.406       .  A
C853        C854   1.409       .  A
C853        F860   1.357       .  S
C854        C855   1.408       .  A
C854        F859   1.357       .  S
C855        C856   1.403       .  A
C856        F857   1.359       .  S
C861        C862   1.406       .  A
C861        C866   1.408       .  A
C861        F868   1.354       .  S
C862        C863   1.409       .  A
C863        C864   1.394       .  A
C863        F870   1.358       .  S
C864        C865   1.407       .  A
C864        F869   1.358       .  S
C865        C866   1.411       .  A
C866        F867   1.354       .  S
C871        C872   1.400       .  A
C871        C876   1.395       .  A
C871        F878   1.355       .  S
C872        C873   1.404       .  A
C873        C874   1.398       .  A
C873        F880   1.358       .  S
C874        C875   1.407       .  A
C874        F879   1.358       .  S
C875        C876   1.406       .  A
C876        F877   1.352       .  S
C881        C882   1.411       .  A
C881        C886   1.374       .  A
C881        F888   1.360       .  S
C882        C883   1.416       .  A
C883        C884   1.421       .  A
C883        F890   1.355       .  S
C884        C885   1.418       .  A
C884        F889   1.355       .  S
C885        C886   1.411       .  A
C886        F887   1.359       .  S
C891        C892   1.412       .  A
C891        C896   1.405       .  A
C891        F898   1.358       .  S
C892        C893   1.417       .  A
C893        C894   1.406       .  A
C893        F900   1.356       .  S
C894        C895   1.413       .  A
C894        F899   1.358       .  S
C895        C896   1.414       .  A
C896        F897   1.357       .  S
C901        C902   1.405       .  A
C901        C906   1.406       .  A
C901        F908   1.357       .  S
C902        C903   1.407       .  A
C903        C904   1.395       .  A
C903        F910   1.358       .  S
C904        C905   1.403       .  A
C904        F909   1.358       .  S
C905        C906   1.407       .  A
C906        F907   1.357       .  S
C911        C912   1.411       .  A
C911        C916   1.400       .  A
C911        F918   1.357       .  S
C912        C913   1.411       .  A
C913        C914   1.401       .  A
C913        F920   1.358       .  S
C914        C915   1.412       .  A
C914        F919   1.355       .  S
C915        C916   1.413       .  A
C916        F917   1.359       .  S
C921        C922   1.406       .  A
C921        C926   1.393       .  A
C921        F928   1.358       .  S
C922        C923   1.410       .  A
C923        C924   1.398       .  A
C923        F930   1.355       .  S
C924        C925   1.403       .  A
C924        F929   1.357       .  S
C925        C926   1.405       .  A
C926        F927   1.358       .  S
C931        C932   1.416       .  A
C931        C936   1.419       .  A
C931        F938   1.354       .  S
C932        C933   1.412       .  A
C933        C934   1.379       .  A
C933        F940   1.360       .  S
C934        C935   1.411       .  A
C934        F939   1.361       .  S
C935        C936   1.416       .  A
C936        F937   1.354       .  S
C941        C942   1.407       .  A
C941        C946   1.396       .  A
C941        F948   1.358       .  S
C942        C943   1.405       .  A
C943        C944   1.398       .  A
C943        F950   1.356       .  S
C944        C945   1.410       .  A
C944        F949   1.356       .  S
C945        C946   1.407       .  A
C946        F947   1.358       .  S
C951        C952   1.405   1_455  A
C951        C956   1.397       .  A
C951        F958   1.358       .  S
C952        C953   1.406   1_655  A
C953        C954   1.405       .  A
C953        F960   1.357   1_455  S
C954        C955   1.405       .  A
C954        F959   1.357       .  S
C955        C956   1.404       .  A
C956        F957   1.358       .  S
C961        C962   1.407       .  A
C961        C966   1.387       .  A
C961        F968   1.358       .  S
C962        C963   1.407       .  A
C963        C964   1.398       .  A
C963        F970   1.358       .  S
C964        C965   1.407       .  A
C964        F969   1.358       .  S
C965        C966   1.406       .  A
C966        F967   1.358       .  S
C971        C972   1.408   1_554  A
C971        C976   1.392       .  A
C971        F978   1.358   1_554  S
C972        C973   1.411   1_556  A
C973        C974   1.411       .  A
C973        F980   1.357   1_554  S
C974        C975   1.410       .  A
C974        F979   1.357       .  S
C975        C976   1.407       .  A
C976        F977   1.359       .  S
C981        C982   1.410   1_554  A
C981        C986   1.408       .  A
C981        F988   1.357   1_554  S
C982        C983   1.408   1_556  A
C983        C984   1.395       .  A
C983        F990   1.358   1_554  S
C984        C985   1.407       .  A
C984        F989   1.358       .  S
C985        C986   1.409       .  A
C986        F987   1.357       .  S
C991        C992   1.407       .  A
C991        C996   1.400       .  A
C991        F998   1.358       .  S
C992        C993   1.406       .  A
C993        C994   1.388       .  A
C993       F1000   1.358       .  S
C994        C995   1.404       .  A
C994        F999   1.358       .  S
C995        C996   1.407       .  A
C996        F997   1.358       .  S
C1001      C1002   1.405       .  A
C1001      C1006   1.394       .  A
C1001      F1008   1.358       .  S
C1002      C1003   1.406       .  A
C1003      C1004   1.399       .  A
C1003      F1010   1.356       .  S
C1004      C1005   1.407       .  A
C1004      F1009   1.356       .  S
C1005      C1006   1.406       .  A
C1006      F1007   1.358       .  S
C1011      C1012   1.404       .  A
C1011      C1016   1.391       .  A
C1011      F1018   1.359       .  S
C1012      C1013   1.405       .  A
C1013      C1014   1.406       .  A
C1013      F1020   1.357       .  S
C1014      C1015   1.406       .  A
C1014      F1019   1.357       .  S
C1015      C1016   1.404       .  A
C1016      F1017   1.359       .  S
C1021      C1022   1.406       .  A
C1021      C1026   1.394       .  A
C1021      F1028   1.358       .  S
C1022      C1023   1.404       .  A
C1023      C1024   1.395       .  A
C1023      F1030   1.357       .  S
C1024      C1025   1.405   1_455  A
C1024      F1029   1.356       .  S
C1025      C1026   1.403   1_655  A
C1026      F1027   1.358   1_455  S
C1031      C1032   1.406       .  A
C1031      C1036   1.395       .  A
C1031      F1038   1.358       .  S
C1032      C1033   1.407       .  A
C1033      C1034   1.409       .  A
C1033      F1040   1.357       .  S
C1034      C1035   1.408       .  A
C1034      F1039   1.358       .  S
C1035      C1036   1.404       .  A
C1036      F1037   1.358       .  S
C1041      C1042   1.411       .  A
C1041      C1046   1.381       .  A
C1041      F1048   1.360       .  S
C1042      C1043   1.418       .  A
C1043      C1044   1.422       .  A
C1043      F1050   1.355       .  S
C1044      C1045   1.417       .  A
C1044      F1049   1.355       .  S
C1045      C1046   1.410       .  A
C1046      F1047   1.360       .  S
C1051      C1052   1.416       .  A
C1051      C1056   1.420       .  A
C1051      F1058   1.355       .  S
C1052      C1053   1.413       .  A
C1053      C1054   1.378       .  A
C1053      F1060   1.360       .  S
C1054      C1055   1.411       .  A
C1054      F1059   1.361       .  S
C1055      C1056   1.416       .  A
C1056      F1057   1.354       .  S
C1061      C1062   1.407       .  A
C1061      C1066   1.401       .  A
C1061      F1068   1.358       .  S
C1062      C1063   1.404       .  A
C1063      C1064   1.400       .  A
C1063      F1070   1.355       .  S
C1064      C1065   1.405   1_455  A
C1064      F1069   1.355       .  S
C1065      C1066   1.406   1_655  A
C1066      F1067   1.358   1_455  S
C1071      C1072   1.412       .  A
C1071      C1076   1.403       .  A
C1071      F1078   1.358       .  S
C1072      C1073   1.413       .  A
C1073      C1074   1.404       .  A
C1073      F1080   1.358       .  S
C1074      C1075   1.411       .  A
C1074      F1079   1.358       .  S
C1075      C1076   1.416       .  A
C1076      F1077   1.356       .  S
C1081      C1082   1.405       .  A
C1081      C1086   1.406       .  A
C1081      F1088   1.357       .  S
C1082      C1083   1.407       .  A
C1083      C1084   1.385       .  A
C1083      F1090   1.358       .  S
C1084      C1085   1.400       .  A
C1084      F1089   1.359       .  S
C1085      C1086   1.405       .  A
C1086      F1087   1.358       .  S
C1091      C1092   1.410       .  A
C1091      C1096   1.379       .  A
C1091      F1098   1.360       .  S
C1092      C1093   1.418       .  A
C1093      C1094   1.420       .  A
C1093      F1100   1.354       .  S
C1094      C1095   1.415       .  A
C1094      F1099   1.355       .  S
C1095      C1096   1.412       .  A
C1096      F1097   1.360       .  S
C1101      C1102   1.408       .  A
C1101      C1106   1.403       .  A
C1101      F1108   1.354       .  S
C1102      C1103   1.407       .  A
C1103      C1104   1.395       .  A
C1103      F1110   1.358       .  S
C1104      C1105   1.408       .  A
C1104      F1109   1.358       .  S
C1105      C1106   1.407       .  A
C1106      F1107   1.354       .  S
C1111      C1112   1.407       .  A
C1111      C1116   1.399       .  A
C1111      F1118   1.358       .  S
C1112      C1113   1.407       .  A
C1113      C1114   1.402       .  A
C1113      F1120   1.354       .  S
C1114      C1115   1.404       .  A
C1114      F1119   1.355       .  S
C1115      C1116   1.404       .  A
C1116      F1117   1.358       .  S
C1121      C1122   1.402       .  A
C1121      C1126   1.384       .  A
C1121      F1128   1.359       .  S
C1122      C1123   1.406       .  A
C1123      C1124   1.401       .  A
C1123      F1130   1.358       .  S
C1124      C1125   1.407   1_455  A
C1124      F1129   1.358   1_455  S
C1125      C1126   1.404   1_655  A
C1126      F1127   1.358   1_455  S
C1131      C1132   1.408       .  A
C1131      C1136   1.398       .  A
C1131      F1138   1.358       .  S
C1132      C1133   1.409       .  A
C1133      C1134   1.409       .  A
C1133      F1140   1.357       .  S
C1134      C1135   1.409       .  A
C1134      F1139   1.357       .  S
C1135      C1136   1.407       .  A
C1136      F1137   1.358       .  S
C1141      C1142   1.410       .  A
C1141      C1146   1.410       .  A
C1141      F1148   1.357       .  S
C1142      C1143   1.408       .  A
C1143      C1144   1.392       .  A
C1143      F1150   1.358       .  S
C1144      C1145   1.407       .  A
C1144      F1149   1.358       .  S
C1145      C1146   1.410       .  A
C1146      F1147   1.357       .  S
C1151      C1152   1.408   1_455  A
C1151      C1156   1.404       .  A
C1151      F1158   1.357   1_455  S
C1152      C1153   1.407   1_655  A
C1153      C1154   1.389       .  A
C1153      F1160   1.358   1_455  S
C1154      C1155   1.408       .  A
C1154      F1159   1.358       .  S
C1155      C1156   1.408       .  A
C1156      F1157   1.357       .  S
C1161      C1162   1.409       .  A
C1161      C1166   1.402       .  A
C1161      F1168   1.358       .  S
C1162      C1163   1.406       .  A
C1163      C1164   1.390       .  A
C1163      F1170   1.358       .  S
C1164      C1165   1.408       .  A
C1164      F1169   1.358       .  S
C1165      C1166   1.407       .  A
C1166      F1167   1.358       .  S
C1171      C1172   1.408   1_554  A
C1171      C1176   1.393       .  A
C1171      F1178   1.358   1_554  S
C1172      C1173   1.410   1_556  A
C1173      C1174   1.409       .  A
C1173      F1180   1.357   1_554  S
C1174      C1175   1.409       .  A
C1174      F1179   1.357       .  S
C1175      C1176   1.406       .  A
C1176      F1177   1.358       .  S
C1181      C1182   1.412   1_554  A
C1181      C1186   1.414       .  A
C1181      F1188   1.357   1_554  S
C1182      C1183   1.408   1_556  A
C1183      C1184   1.390       .  A
C1183      F1190   1.358   1_554  S
C1184      C1185   1.408       .  A
C1184      F1189   1.358       .  S
C1185      C1186   1.412       .  A
C1186      F1187   1.357       .  S
C1191      C1192   1.403       .  A
C1191      C1196   1.391       .  A
C1191      F1198   1.358       .  S
C1192      C1193   1.405       .  A
C1193      C1194   1.400       .  A
C1193      F1200   1.358       .  S
C1194      C1195   1.407       .  A
C1194      F1199   1.358       .  S
C1195      C1196   1.404       .  A
C1196      F1197   1.358       .  S
C1201      C1202   1.408       .  A
C1201      C1206   1.395       .  A
C1201      F1208   1.358       .  S
C1202      C1203   1.404       .  A
C1203      C1204   1.394       .  A
C1203      F1210   1.358       .  S
C1204      C1205   1.407       .  A
C1204      F1209   1.358       .  S
C1205      C1206   1.405       .  A
C1206      F1207   1.358       .  S
C1211      C1212   1.407       .  A
C1211      C1216   1.391       .  A
C1211      F1218   1.358       .  S
C1212      C1213   1.407       .  A
C1213      C1214   1.398       .  A
C1213      F1220   1.358       .  S
C1214      C1215   1.408       .  A
C1214      F1219   1.358       .  S
C1215      C1216   1.406       .  A
C1216      F1217   1.358       .  S
C1221      C1222   1.404       .  A
C1221      C1226   1.388       .  A
C1221      F1228   1.358       .  S
C1222      C1223   1.410       .  A
C1223      C1224   1.402       .  A
C1223      F1230   1.358       .  S
C1224      C1225   1.406       .  A
C1224      F1229   1.358       .  S
C1225      C1226   1.408       .  A
C1226      F1227   1.358       .  S
C1231      C1232   1.408       .  A
C1231      C1236   1.399       .  A
C1231      F1238   1.358       .  S
C1232      C1233   1.409       .  A
C1233      C1234   1.399       .  A
C1233      F1240   1.358       .  S
C1234      C1235   1.408       .  A
C1234      F1239   1.358       .  S
C1235      C1236   1.410       .  A
C1236      F1237   1.358       .  S
C1241      C1242   1.406       .  A
C1241      C1246   1.395       .  A
C1241      F1248   1.359       .  S
C1242      C1243   1.407       .  A
C1243      C1244   1.407       .  A
C1243      F1250   1.357       .  S
C1244      C1245   1.410       .  A
C1244      F1249   1.357       .  S
C1245      C1246   1.406       .  A
C1246      F1247   1.358       .  S
C1251      C1252   1.408       .  A
C1251      C1256   1.397       .  A
C1251      F1258   1.358       .  S
C1252      C1253   1.407       .  A
C1253      C1254   1.394       .  A
C1253      F1260   1.358       .  S
C1254      C1255   1.408       .  A
C1254      F1259   1.358       .  S
C1255      C1256   1.406       .  A
C1256      F1257   1.358       .  S
C1261      C1262   1.405       .  A
C1261      C1266   1.392       .  A
C1261      F1268   1.359       .  S
C1262      C1263   1.410       .  A
C1263      C1264   1.410       .  A
C1263      F1270   1.358       .  S
C1264      C1265   1.408       .  A
C1264      F1269   1.357       .  S
C1265      C1266   1.406       .  A
C1266      F1267   1.359       .  S
C1271      C1272   1.405       .  A
C1271      C1276   1.399       .  A
C1271      F1278   1.358       .  S
C1272      C1273   1.406       .  A
C1273      C1274   1.390       .  A
C1273      F1280   1.359       .  S
C1274      C1275   1.406       .  A
C1274      F1279   1.359       .  S
C1275      C1276   1.406       .  A
C1276      F1277   1.357       .  S
C1281      C1282   1.404       .  A
C1281      C1286   1.398       .  A
C1281      F1288   1.356       .  S
C1282      C1283   1.404       .  A
C1283      C1284   1.393       .  A
C1283      F1290   1.358       .  S
C1284      C1285   1.404       .  A
C1284      F1289   1.358       .  S
C1285      C1286   1.408       .  A
C1286      F1287   1.357       .  S
C1291      C1292   1.405       .  A
C1291      C1296   1.392       .  A
C1291      F1298   1.358       .  S
C1292      C1293   1.405       .  A
C1293      C1294   1.405       .  A
C1293      F1300   1.357       .  S
C1294      C1295   1.406       .  A
C1294      F1299   1.357       .  S
C1295      C1296   1.403       .  A
C1296      F1297   1.359       .  S
C1301      C1302   1.404       .  A
C1301      C1306   1.397       .  A
C1301      F1308   1.356       .  S
C1302      C1303   1.404       .  A
C1303      C1304   1.395       .  A
C1303      F1310   1.358       .  S
C1304      C1305   1.409       .  A
C1304      F1309   1.359       .  S
C1305      C1306   1.407       .  A
C1306      F1307   1.356       .  S
C1311      C1312   1.408   1_545  A
C1311      C1316   1.408       .  A
C1311      F1318   1.358       .  S
C1312      C1313   1.405       .  A
C1313      C1314   1.394       .  A
C1313      F1320   1.358       .  S
C1314      C1315   1.403   1_565  A
C1314      F1319   1.358       .  S
C1315      C1316   1.407       .  A
C1316      F1317   1.358       .  S
C1321      C1322   1.415       .  A
C1321      C1326   1.404       .  A
C1321      F1328   1.356   1_545  S
C1322      C1323   1.412       .  A
C1323      C1324   1.405       .  A
C1323      F1330   1.358       .  S
C1324      C1325   1.414       .  A
C1324      F1329   1.358       .  S
C1325      C1326   1.411       .  A
C1326      F1327   1.358       .  S
C1331      C1332   1.411       .  A
C1331      C1336   1.378       .  A
C1331      F1338   1.360       .  S
C1332      C1333   1.416       .  A
C1333      C1334   1.419       .  A
C1333      F1340   1.354       .  S
C1334      C1335   1.416       .  A
C1334      F1339   1.354       .  S
C1335      C1336   1.411       .  A
C1336      F1337   1.360       .  S
C1341      C1342   1.405       .  A
C1341      C1346   1.396       .  A
C1341      F1348   1.356       .  S
C1342      C1343   1.405       .  A
C1343      C1344   1.400       .  A
C1343      F1350   1.358       .  S
C1344      C1345   1.405       .  A
C1344      F1349   1.358       .  S
C1345      C1346   1.401       .  A
C1346      F1347   1.354       .  S
C1351      C1352   1.417       .  A
C1351      C1356   1.420       .  A
C1351      F1358   1.355       .  S
C1352      C1353   1.411       .  A
C1353      C1354   1.380       .  A
C1353      F1360   1.360       .  S
C1354      C1355   1.412       .  A
C1354      F1359   1.360       .  S
C1355      C1356   1.416       .  A
C1356      F1357   1.354       .  S
C1361      C1362   1.407       .  A
C1361      C1366   1.393       .  A
C1361      F1368   1.358       .  S
C1362      C1363   1.407       .  A
C1363      C1364   1.402       .  A
C1363      F1370   1.354       .  S
C1364      C1365   1.407       .  A
C1364      F1369   1.355       .  S
C1365      C1366   1.406       .  A
C1366      F1367   1.358       .  S
C1371      C1372   1.412       .  A
C1371      C1376   1.377       .  A
C1371      F1378   1.361       .  S
C1372      C1373   1.416   1_565  A
C1373      C1374   1.423       .  A
C1373      F1380   1.355       .  S
C1374      C1375   1.418   1_545  A
C1374      F1379   1.355       .  S
C1375      C1376   1.413       .  A
C1376      F1377   1.360       .  S
C1381      C1382   1.405       .  A
C1381      C1386   1.398       .  A
C1381      F1388   1.354       .  S
C1382      C1383   1.407       .  A
C1383      C1384   1.402       .  A
C1383      F1390   1.358       .  S
C1384      C1385   1.407       .  A
C1384      F1389   1.358       .  S
C1385      C1386   1.402       .  A
C1386      F1387   1.355       .  S
C1391      C1392   1.405       .  A
C1391      C1396   1.406       .  A
C1391      F1398   1.357       .  S
C1392      C1393   1.407   1_545  A
C1393      C1394   1.387       .  A
C1393      F1400   1.359       .  S
C1394      C1395   1.404   1_565  A
C1394      F1399   1.359       .  S
C1395      C1396   1.405       .  A
C1396      F1397   1.357       .  S
C1401      C1402   1.405       .  A
C1401      C1406   1.391       .  A
C1401      F1408   1.358       .  S
C1402      C1403   1.407       .  A
C1403      C1404   1.396       .  A
C1403      F1410   1.358       .  S
C1404      C1405   1.406       .  A
C1404      F1409   1.358       .  S
C1405      C1406   1.405       .  A
C1406      F1407   1.358       .  S
C1411      C1412   1.407       .  A
C1411      C1416   1.395       .  A
C1411      F1418   1.358       .  S
C1412      C1413   1.406       .  A
C1413      C1414   1.391       .  A
C1413      F1420   1.358       .  S
C1414      C1415   1.407       .  A
C1414      F1419   1.358       .  S
C1415      C1416   1.406       .  A
C1416      F1417   1.358       .  S
C1421      C1422   1.405       .  A
C1421      C1426   1.388       .  A
C1421      F1428   1.358       .  S
C1422      C1423   1.406       .  A
C1423      C1424   1.396       .  A
C1423      F1430   1.358       .  S
C1424      C1425   1.405       .  A
C1424      F1429   1.358       .  S
C1425      C1426   1.404       .  A
C1426      F1427   1.359       .  S
C1431      C1432   1.406       .  A
C1431      C1436   1.391       .  A
C1431      F1438   1.358       .  S
C1432      C1433   1.407       .  A
C1433      C1434   1.396       .  A
C1433      F1440   1.358       .  S
C1434      C1435   1.406       .  A
C1434      F1439   1.358       .  S
C1435      C1436   1.407       .  A
C1436      F1437   1.358       .  S
C1441      C1442   1.409   1_554  A
C1441      C1446   1.407       .  A
C1441      F1448   1.357   1_554  S
C1442      C1443   1.407       .  A
C1443      C1444   1.394   1_556  A
C1443      F1450   1.359       .  S
C1444      C1445   1.409       .  A
C1444      F1449   1.358       .  S
C1445      C1446   1.409       .  A
C1446      F1447   1.357       .  S
C1451      C1452   1.407       .  A
C1451      C1456   1.395       .  A
C1451      F1458   1.358       .  S
C1452      C1453   1.409       .  A
C1453      C1454   1.398       .  A
C1453      F1460   1.358       .  S
C1454      C1455   1.407       .  A
C1454      F1459   1.358       .  S
C1455      C1456   1.407       .  A
C1456      F1457   1.358       .  S
C1461      C1462   1.409       .  A
C1461      C1466   1.409       .  A
C1461      F1468   1.358       .  S
C1462      C1463   1.407       .  A
C1463      C1464   1.394       .  A
C1463      F1470   1.358       .  S
C1464      C1465   1.405   1_554  A
C1464      F1469   1.358   1_554  S
C1465      C1466   1.409   1_556  A
C1466      F1467   1.357   1_554  S
C1471      C1472   1.408       .  A
C1471      C1476   1.402       .  A
C1471      F1478   1.358       .  S
C1472      C1473   1.408       .  A
C1473      C1474   1.388       .  A
C1473      F1480   1.358       .  S
C1474      C1475   1.406       .  A
C1474      F1479   1.358       .  S
C1475      C1476   1.409       .  A
C1476      F1477   1.358       .  S
C1481      C1482   1.404       .  A
C1481      C1486   1.399       .  A
C1481      F1488   1.358       .  S
C1482      C1483   1.403       .  A
C1483      C1484   1.394       .  A
C1483      F1490   1.357       .  S
C1484      C1485   1.402       .  A
C1484      F1489   1.355       .  S
C1485      C1486   1.404       .  A
C1486      F1487   1.358       .  S
C1491      C1492   1.406   1_565  A
C1491      C1496   1.404       .  A
C1491      F1498   1.355       .  S
C1492      C1493   1.406       .  A
C1493      C1494   1.396       .  A
C1493      F1500   1.358       .  S
C1494      C1495   1.407       .  A
C1494      F1499   1.358       .  S
C1495      C1496   1.406   1_545  A
C1496      F1497   1.355       .  S
C1501      C1502   1.408       .  A
C1501      C1506   1.391       .  A
C1501      F1508   1.359       .  S
C1502      C1503   1.410       .  A
C1503      C1504   1.410       .  A
C1503      F1510   1.357       .  S
C1504      C1505   1.408       .  A
C1504      F1509   1.357       .  S
C1505      C1506   1.407       .  A
C1506      F1507   1.359       .  S
C1511      C1512   1.406       .  A
C1511      C1516   1.400       .  A
C1511      F1518   1.358       .  S
C1512      C1513   1.401       .  A
C1513      C1514   1.391       .  A
C1513      F1520   1.355       .  S
C1514      C1515   1.402       .  A
C1514      F1519   1.357       .  S
C1515      C1516   1.403       .  A
C1516      F1517   1.358       .  S
C1521      C1522   1.416   1_545  A
C1521      C1526   1.419       .  A
C1521      F1528   1.354       .  S
C1522      C1523   1.411       .  A
C1523      C1524   1.380       .  A
C1523      F1530   1.360       .  S
C1524      C1525   1.410       .  A
C1524      F1529   1.360       .  S
C1525      C1526   1.417   1_565  A
C1526      F1527   1.355       .  S
C1531      C1532   1.411       .  A
C1531      C1536   1.400       .  A
C1531      F1538   1.358       .  S
C1532      C1533   1.410       .  A
C1533      C1534   1.399       .  A
C1533      F1540   1.357       .  S
C1534      C1535   1.411       .  A
C1534      F1539   1.356       .  S
C1535      C1536   1.412       .  A
C1536      F1537   1.358       .  S
C1541      C1542   1.407       .  A
C1541      C1546   1.403       .  A
C1541      F1548   1.358       .  S
C1542      C1543   1.405       .  A
C1543      C1544   1.399       .  A
C1543      F1550   1.355       .  S
C1544      C1545   1.404       .  A
C1544      F1549   1.356       .  S
C1545      C1546   1.407       .  A
C1546      F1547   1.358       .  S
C1551      C1552   1.417       .  A
C1551      C1556   1.417       .  A
C1551      F1558   1.354       .  S
C1552      C1553   1.410       .  A
C1553      C1554   1.381       .  A
C1553      F1560   1.360   1_545  S
C1554      C1555   1.411       .  A
C1554      F1559   1.360   1_545  S
C1555      C1556   1.416       .  A
C1556      F1557   1.354       .  S
C1561      C1562   1.406       .  A
C1561      C1566   1.395       .  A
C1561      F1568   1.358       .  S
C1562      C1563   1.408   1_545  A
C1563      C1564   1.402       .  A
C1563      F1570   1.355       .  S
C1564      C1565   1.406   1_565  A
C1564      F1569   1.355       .  S
C1565      C1566   1.408       .  A
C1566      F1567   1.358       .  S
C1571      C1572   1.413       .  A
C1571      C1576   1.402       .  A
C1571      F1578   1.358       .  S
C1572      C1573   1.413       .  A
C1573      C1574   1.402       .  A
C1573      F1580   1.356       .  S
C1574      C1575   1.412       .  A
C1574      F1579   1.356       .  S
C1575      C1576   1.412       .  A
C1576      F1577   1.358       .  S
C1581      C1582   1.404       .  A
C1581      C1586   1.404       .  A
C1581      F1588   1.357       .  S
C1582      C1583   1.406       .  A
C1583      C1584   1.390       .  A
C1583      F1590   1.359       .  S
C1584      C1585   1.404       .  A
C1584      F1589   1.359       .  S
C1585      C1586   1.404       .  A
C1586      F1587   1.357       .  S
C1591      C1592   1.406       .  A
C1591      C1596   1.399       .  A
C1591      F1598   1.353       .  S
C1592      C1593   1.406       .  A
C1593      C1594   1.400       .  A
C1593      F1600   1.357       .  S
C1594      C1595   1.404       .  A
C1594      F1599   1.358       .  S
C1595      C1596   1.402       .  A
C1596      F1597   1.357       .  S
C1601      C1602   1.406       .  A
C1601      C1606   1.396       .  A
C1601      F1608   1.358       .  S
C1602      C1603   1.406       .  A
C1603      C1604   1.393       .  A
C1603      F1610   1.358       .  S
C1604      C1605   1.406       .  A
C1604      F1609   1.358       .  S
C1605      C1606   1.407       .  A
C1606      F1607   1.358       .  S
C1611      C1612   1.407       .  A
C1611      C1616   1.396       .  A
C1611      F1618   1.358       .  S
C1612      C1613   1.408       .  A
C1613      C1614   1.399       .  A
C1613      F1620   1.358       .  S
C1614      C1615   1.408       .  A
C1614      F1619   1.358       .  S
C1615      C1616   1.409       .  A
C1616      F1617   1.358       .  S
C1621      C1622   1.408       .  A
C1621      C1626   1.389       .  A
C1621      F1628   1.358       .  S
C1622      C1623   1.407       .  A
C1623      C1624   1.401       .  A
C1623      F1630   1.358       .  S
C1624      C1625   1.409       .  A
C1624      F1629   1.358       .  S
C1625      C1626   1.405       .  A
C1626      F1627   1.358       .  S
C1631      C1632   1.406       .  A
C1631      C1636   1.393       .  A
C1631      F1638   1.358       .  S
C1632      C1633   1.407       .  A
C1633      C1634   1.399       .  A
C1633      F1640   1.358       .  S
C1634      C1635   1.408       .  A
C1634      F1639   1.358       .  S
C1635      C1636   1.405       .  A
C1636      F1637   1.358       .  S
C1641      C1642   1.408       .  A
C1641      C1646   1.408       .  A
C1641      F1648   1.357       .  S
C1642      C1643   1.407       .  A
C1643      C1644   1.394       .  A
C1643      F1650   1.359       .  S
C1644      C1645   1.407       .  A
C1644      F1649   1.359       .  S
C1645      C1646   1.409       .  A
C1646      F1647   1.357       .  S
C1651      C1652   1.408       .  A
C1651      C1656   1.397       .  A
C1651      F1658   1.358       .  S
C1652      C1653   1.408       .  A
C1653      C1654   1.399       .  A
C1653      F1660   1.358       .  S
C1654      C1655   1.409       .  A
C1654      F1659   1.358       .  S
C1655      C1656   1.406       .  A
C1656      F1657   1.358       .  S
C1661      C1662   1.405       .  A
C1661      C1666   1.397       .  A
C1661      F1668   1.358       .  S
C1662      C1663   1.408       .  A
C1663      C1664   1.406       .  A
C1663      F1670   1.358       .  S
C1664      C1665   1.407       .  A
C1664      F1669   1.357       .  S
C1665      C1666   1.407       .  A
C1666      F1667   1.358       .  S
C1671      C1672   1.407       .  A
C1671      C1676   1.403       .  A
C1671      F1678   1.357       .  S
C1672      C1673   1.409       .  A
C1673      C1674   1.390       .  A
C1673      F1680   1.358       .  S
C1674      C1675   1.405       .  A
C1674      F1679   1.359       .  S
C1675      C1676   1.409       .  A
C1676      F1677   1.358       .  S
C1681      C1682   1.407       .  A
C1681      C1686   1.396       .  A
C1681      F1688   1.358       .  S
C1682      C1683   1.408       .  A
C1683      C1684   1.398       .  A
C1683      F1690   1.358       .  S
C1684      C1685   1.408       .  A
C1684      F1689   1.358       .  S
C1685      C1686   1.409       .  A
C1686      F1687   1.358       .  S
C1691      C1692   1.406       .  A
C1691      C1696   1.394       .  A
C1691      F1698   1.358       .  S
C1692      C1693   1.407       .  A
C1693      C1694   1.394       .  A
C1693      F1700   1.358       .  S
C1694      C1695   1.407       .  A
C1694      F1699   1.358       .  S
C1695      C1696   1.406       .  A
C1696      F1697   1.358       .  S
C1701      C1702   1.407       .  A
C1701      C1706   1.399       .  A
C1701      F1708   1.358       .  S
C1702      C1703   1.406       .  A
C1703      C1704   1.390       .  A
C1703      F1710   1.358       .  S
C1704      C1705   1.408       .  A
C1704      F1709   1.358       .  S
C1705      C1706   1.407       .  A
C1706      F1707   1.358       .  S
C1711      C1712   1.407       .  A
C1711      C1716   1.397       .  A
C1711      F1718   1.358       .  S
C1712      C1713   1.407       .  A
C1713      C1714   1.395       .  A
C1713      F1720   1.358       .  S
C1714      C1715   1.406       .  A
C1714      F1719   1.358       .  S
C1715      C1716   1.408       .  A
C1716      F1717   1.358       .  S
C1721      C1722   1.405   1_554  A
C1721      C1726   1.391       .  A
C1721      F1728   1.359   1_554  S
C1722      C1723   1.409       .  A
C1723      C1724   1.410   1_556  A
C1723      F1730   1.357       .  S
C1724      C1725   1.409       .  A
C1724      F1729   1.357       .  S
C1725      C1726   1.404       .  A
C1726      F1727   1.358       .  S
C1731      C1732   1.405       .  A
C1731      C1736   1.391       .  A
C1731      F1738   1.358       .  S
C1732      C1733   1.406       .  A
C1733      C1734   1.396       .  A
C1733      F1740   1.358       .  S
C1734      C1735   1.406       .  A
C1734      F1739   1.358       .  S
C1735      C1736   1.407       .  A
C1736      F1737   1.358       .  S
C1741      C1742   1.407   1_554  A
C1741      C1746   1.406       .  A
C1741      F1748   1.358   1_554  S
C1742      C1743   1.405   1_556  A
C1743      C1744   1.395       .  A
C1743      F1750   1.358   1_554  S
C1744      C1745   1.405       .  A
C1744      F1749   1.358       .  S
C1745      C1746   1.409       .  A
C1746      F1747   1.358       .  S
C1751      C1752   1.408       .  A
C1751      C1756   1.399       .  A
C1751      F1758   1.358       .  S
C1752      C1753   1.407       .  A
C1753      C1754   1.390       .  A
C1753      F1760   1.358       .  S
C1754      C1755   1.406       .  A
C1754      F1759   1.358       .  S
C1755      C1756   1.407       .  A
C1756      F1757   1.358       .  S
