geometry optimzed in LAMMPS
_audit_creation_date              2020-11-30 
_audit_creation_method            'lammps2cif' 
_symmetry_space_group_name_H-M    'P1' 
_symmetry_Int_Tables_number       1 
_symmetry_cell_setting            triclinic 
loop_ 
_symmetry_equiv_pos_as_xyz 
  x,y,z 
_cell_length_a                    32.04186051 
_cell_length_b                    32.08341080761879 
_cell_length_c                    27.908899088219457 
_cell_angle_alpha                 90.13862170813725 
_cell_angle_beta                  90.09469376841473 
_cell_angle_gamma                 90.04577167996271 
loop_ 
_atom_site_label 
_atom_site_type_symbol 
_atom_site_fract_x 
_atom_site_fract_y 
_atom_site_fract_z 
_atom_site_charge 
C1          C  0.47776591  0.22901813  0.28677855     0.80300
N2          N  0.47809838  0.27135835  0.28724585    -0.78000
C3          C  0.50015054  0.29284864  0.25390861     0.82800
N4          N  0.52193812  0.27165496  0.21986318    -0.77900
C5          C  0.52182488  0.22927815  0.21914243     0.82900
N6          N  0.49979748  0.20826985  0.25280039    -0.79600
N7          N  0.54721558  0.49194797  0.24614506    -0.36500
N8          N  0.45540028  0.49310521  0.24917159    -0.57100
N9          N  0.45479159  0.40183340  0.25685995    -0.36500
N10         N  0.54679235  0.40070495  0.25088554    -0.57100
C11         C  0.54083442  0.53368489  0.24436136     0.27100
C12         C  0.58894907  0.48502700  0.24460718     0.27100
C13         C  0.41336252  0.40883283  0.25044365     0.27100
C14         C  0.46149889  0.36028065  0.25213400     0.27100
C15         C  0.46224528  0.53476487  0.24941821     0.35700
C16         C  0.41363420  0.48737942  0.25238170     0.35700
C17         C  0.58865089  0.40658654  0.25200706     0.35700
C18         C  0.54002350  0.35931819  0.25594433     0.35700
C19         C  0.57911936  0.55358934  0.24082832    -0.21800
C20         C  0.60923911  0.52324551  0.24159826    -0.21800
C21         C  0.39345783  0.37083619  0.24342759    -0.21800
C22         C  0.42364612  0.34055110  0.24383293    -0.21800
C23         C  0.42448489  0.55561470  0.25286178    -0.22800
C24         C  0.39389590  0.52588697  0.25392561    -0.22800
C25         C  0.60845328  0.36834528  0.25708005    -0.22800
C26         C  0.57785619  0.33876512  0.26044966    -0.22800
C27         C  0.50176989  0.55474056  0.24648487    -0.18200
C28         C  0.60952081  0.44562762  0.24772268    -0.18200
C29         C  0.50054530  0.33923629  0.25478564    -0.18200
C30         C  0.39272323  0.44821504  0.25144135    -0.18200
H31         H  0.58515554  0.58669155  0.23846086     0.14700
H32         H  0.64237972  0.52941155  0.24109985     0.14700
H33         H  0.36056263  0.36488321  0.23852566     0.14700
H34         H  0.41805351  0.30765117  0.23815425     0.14700
H35         H  0.41910456  0.58887040  0.25421204     0.13000
H36         H  0.36087259  0.53254685  0.25486690     0.13000
H37         H  0.64148904  0.36171226  0.25790157     0.13000
H38         H  0.58324144  0.30577016  0.26535430     0.13000
H39         H  0.52438523  0.46959221  0.24902519     0.26300
H40         H  0.47709446  0.42391073  0.26520965     0.26300
C41         C  0.71997658  0.42618999  0.28373635     0.80300
N42         N  0.67755342  0.42626193  0.28342196    -0.78000
C43         C  0.65609227  0.44549304  0.24777184     0.82800
N44         N  0.67751613  0.46517656  0.21251840    -0.77900
C45         C  0.71990373  0.46653134  0.21298385     0.82900
N46         N  0.74089395  0.44665958  0.24859036    -0.79600
C47         C  0.48148695  0.66474786  0.21109415     0.80300
N48         N  0.48199191  0.62237600  0.21110743    -0.78000
C49         C  0.50226225  0.60113877  0.24617875     0.82800
N50         N  0.52226827  0.62257972  0.28145310    -0.77900
C51         C  0.52225842  0.66496758  0.28175749     0.82900
N52         N  0.50163148  0.68574325  0.24658574    -0.79600
C53         C  0.28247759  0.43171767  0.21195717     0.80300
N54         N  0.32491473  0.43040336  0.21351385    -0.78000
C55         C  0.34618633  0.44881074  0.25007524     0.84400
N56         N  0.32466615  0.46913432  0.28483397    -0.77900
C57         C  0.28240820  0.47180371  0.28312272     0.82900
N58         N  0.26149149  0.45275763  0.24673923    -0.79600
C59         C  0.52049484  0.66736020  0.71238722     0.80300
N60         N  0.51989385  0.62498673  0.71203554    -0.78000
C61         C  0.50080473  0.60356086  0.74775158     0.82800
N62         N  0.48188502  0.62478815  0.78377440    -0.77900
C63         C  0.48185335  0.66709402  0.78427911     0.82900
N64         N  0.50133572  0.68815275  0.74861725    -0.79600
N65         N  0.45381764  0.40386468  0.75514824    -0.36500
N66         N  0.54545742  0.40310478  0.75032505    -0.57100
N67         N  0.54583996  0.49467313  0.74687445    -0.36500
N68         N  0.45422358  0.49540238  0.75049314    -0.57100
C69         C  0.46022045  0.36220408  0.75265969     0.27100
C70         C  0.41215151  0.41071311  0.75328545     0.27100
C71         C  0.58748830  0.48772468  0.74606421     0.27100
C72         C  0.53955535  0.53638439  0.74598212     0.27100
C73         C  0.53899507  0.36154744  0.75338787     0.35700
C74         C  0.58722164  0.40919195  0.75046023     0.35700
C75         C  0.41245465  0.48937923  0.75260095     0.35700
C76         C  0.46080490  0.53708074  0.74962909     0.35700
C77         C  0.42180978  0.34221041  0.75052806    -0.21800
C78         C  0.39173963  0.37260932  0.75031324    -0.21800
C79         C  0.60805090  0.52577181  0.74391118    -0.21800
C80         C  0.57806566  0.55626283  0.74451422    -0.21800
C81         C  0.57716622  0.34111746  0.75510696    -0.22800
C82         C  0.60747565  0.37114208  0.75401242    -0.22800
C83         C  0.39239231  0.52768612  0.75327277    -0.22800
C84         C  0.42272566  0.55763038  0.75066052    -0.22800
C85         C  0.49944091  0.34142313  0.75288720    -0.18200
C86         C  0.39175736  0.45011869  0.75350728    -0.18200
C87         C  0.50035488  0.55724571  0.74743652    -0.18200
C88         C  0.60776242  0.44830282  0.74748461    -0.18200
H89         H  0.41558436  0.30910220  0.74926138     0.14700
H90         H  0.35856593  0.36686245  0.74766491     0.14700
H91         H  0.64129435  0.53142878  0.74228463     0.14700
H92         H  0.58447038  0.58934488  0.74438820     0.14700
H93         H  0.58313326  0.30800073  0.75644098     0.13000
H94         H  0.64068565  0.36524853  0.75551327     0.13000
H95         H  0.35929368  0.53390342  0.75547562     0.13000
H96         H  0.41689173  0.59079120  0.74938413     0.13000
H97         H  0.47652723  0.42627744  0.75850145     0.26300
H98         H  0.52306129  0.47224062  0.74821464     0.26300
C99         C  0.28095455  0.43068184  0.78667004     0.80300
N100        N  0.32336114  0.43024015  0.78723600    -0.78000
C101        C  0.34537239  0.45029379  0.75273369     0.82800
N102        N  0.32469580  0.47075781  0.71746092    -0.77900
C103        C  0.28235873  0.47214943  0.71675529     0.82900
N104        N  0.26065301  0.45198762  0.75160049    -0.79600
C105        C  0.51915298  0.23136758  0.78647426     0.80300
N106        N  0.51799505  0.27360025  0.78745955    -0.78000
C107        C  0.49910725  0.29524297  0.75190575     0.82800
N108        N  0.48065715  0.27437256  0.71515995    -0.77900
C109        C  0.48099974  0.23203822  0.71395024     0.82900
N110        N  0.50036696  0.21068965  0.74970580    -0.79600
C111        C  0.71778100  0.46783849  0.78262810     0.80300
N112        N  0.73858805  0.44755122  0.74708013    -0.78000
C113        C  0.71740748  0.42744046  0.71156703     0.82800
N114        N  0.67501392  0.42792073  0.71175323    -0.77900
C115        C  0.65397324  0.44804318  0.74704374     0.82900
N116        N  0.67545602  0.46762684  0.78237466    -0.79600
C117        C  0.97693199  0.73066641  0.78294537     0.80300
N118        N  0.97718273  0.77299679  0.78319641    -0.78000
C119        C  0.99918344  0.79441112  0.74973822     0.82800
N120        N  0.02106940  0.77322373  0.71589161    -0.77900
C121        C  0.02125609  0.73089014  0.71546646     0.82900
N122        N  0.99921130  0.70988654  0.74916528    -0.79600
N123        N  0.04405099  0.99394156  0.75036452    -0.36500
N124        N  0.95178014  0.99352056  0.74918275    -0.57100
N125        N  0.95241232  0.90245162  0.75153046    -0.36500
N126        N  0.04471315  0.90285713  0.74887888    -0.57100
C127        C  0.03698232  0.03543950  0.74902160     0.27100
C128        C  0.08581529  0.98777718  0.74830822     0.27100
C129        C  0.91074103  0.90885879  0.74712537     0.27100
C130        C  0.95964540  0.86102988  0.74746352     0.27100
C131        C  0.95815721  0.03514097  0.75155410     0.35700
C132        C  0.91005014  0.98728169  0.75149403     0.35700
C133        C  0.08644956  0.90930432  0.75136517     0.35700
C134        C  0.03842151  0.86123941  0.75173347     0.35700
C135        C  0.07497215  0.05607377  0.74599354    -0.21800
C136        C  0.10559119  0.02624739  0.74613753    -0.21800
C137        C  0.89117085  0.87055420  0.74122494    -0.21800
C138        C  0.92182636  0.84069755  0.74084542    -0.21800
C139        C  0.92009638  0.05548748  0.75514777    -0.22800
C140        C  0.88980467  0.02543401  0.75443757    -0.22800
C141        C  0.10678601  0.87127578  0.75498001    -0.22800
C142        C  0.07656369  0.84111934  0.75598073    -0.22800
C143        C  0.99750494  0.05553626  0.75069656    -0.18200
C144        C  0.10678536  0.94872762  0.74974473    -0.18200
C145        C  0.99909618  0.84069337  0.74997877    -0.18200
C146        C  0.88966570  0.94793923  0.74968950    -0.18200
H147        H  0.08049051  0.08927887  0.74389761     0.14700
H148        H  0.13867800  0.03275353  0.74520808     0.14700
H149        H  0.85819906  0.86410973  0.73782928     0.14700
H150        H  0.91646773  0.80765650  0.73610381     0.14700
H151        H  0.91437670  0.08861115  0.75815128     0.13000
H152        H  0.85665846  0.03154397  0.75569493     0.13000
H153        H  0.13995716  0.86535099  0.75669423     0.13000
H154        H  0.08242479  0.80808428  0.75956273     0.13000
H155        H  0.02157787  0.97134181  0.75330440     0.26300
H156        H  0.97461580  0.92476143  0.75851337     0.26300
C157        C  0.21764274  0.96888952  0.71668686     0.80300
N158        N  0.17520441  0.96804460  0.71533436    -0.78000
C159        C  0.15319124  0.94929877  0.75090985     0.82800
N160        N  0.17390209  0.93117655  0.78785408    -0.77900
C161        C  0.21625803  0.93134174  0.78929826     0.82900
N162        N  0.23779013  0.95034120  0.75368225    -0.79600
C163        C  0.97732582  0.16524821  0.71642982     0.80300
N164        N  0.99723908  0.18597039  0.75230836    -0.78000
C165        C  0.01742263  0.16487171  0.78758168     0.82800
N166        N  0.01716440  0.12259281  0.78702861    -0.77900
C167        C  0.99743155  0.10158393  0.75135912     0.82900
N168        N  0.97775254  0.12296615  0.71613071    -0.79600
C169        C  0.77953934  0.96706648  0.78638164     0.80300
N170        N  0.82197291  0.96642155  0.78632644    -0.78000
C171        C  0.84319341  0.94778177  0.75000171     0.82800
N172        N  0.82161325  0.92961396  0.71363413    -0.77900
C173        C  0.77920308  0.92944000  0.71363250     0.82900
N174        N  0.75846664  0.94835745  0.75000671    -0.79600
C175        C  0.02043102  0.16640802  0.21315182     0.80300
N176        N  0.02008389  0.12411222  0.21219143    -0.78000
C177        C  0.00105154  0.10220241  0.24739108     0.82800
N178        N  0.98185751  0.12281484  0.28366103    -0.77900
C179        C  0.98104813  0.16510139  0.28457550     0.82900
N180        N  0.00062438  0.18671740  0.24933746    -0.79600
N181        N  0.95497166  0.99394491  0.24450819    -0.36500
N182        N  0.04693565  0.99404086  0.24723077    -0.57100
N183        N  0.04627030  0.90276553  0.25039570    -0.36500
N184        N  0.95435790  0.90268594  0.24833474    -0.57100
C185        C  0.96174411  0.03555515  0.24617695     0.27100
C186        C  0.91327753  0.98745265  0.24708925     0.27100
C187        C  0.08805277  0.90914854  0.24967515     0.27100
C188        C  0.03937516  0.86115685  0.24912719     0.27100
C189        C  0.04061372  0.03572011  0.24688063     0.35700
C190        C  0.08866887  0.98777915  0.24951342     0.35700
C191        C  0.91265315  0.90894754  0.24959659     0.35700
C192        C  0.96058064  0.86106521  0.24994961     0.35700
C193        C  0.92350020  0.05583900  0.24836960    -0.21800
C194        C  0.89321517  0.02571063  0.24969502    -0.21800
C195        C  0.10799757  0.87073529  0.24910887    -0.21800
C196        C  0.07754688  0.84073976  0.24787246    -0.21800
C197        C  0.07878214  0.05610430  0.24916472    -0.22800
C198        C  0.10901899  0.02596412  0.25027760    -0.22800
C199        C  0.89222276  0.87086400  0.25195073    -0.22800
C200        C  0.92242415  0.84074263  0.25275875    -0.22800
C201        C  0.00116726  0.05602949  0.24616322    -0.18200
C202        C  0.89247559  0.94829328  0.24827544    -0.18200
C203        C  0.99990962  0.84075219  0.24909729    -0.18200
C204        C  0.10896491  0.94834648  0.25001934    -0.18200
H205        H  0.91746133  0.08896594  0.24919213     0.14700
H206        H  0.86013646  0.03173424  0.25294948     0.14700
H207        H  0.14110442  0.86437079  0.24983806     0.14700
H208        H  0.08338338  0.80758309  0.24623840     0.14700
H209        H  0.08462525  0.08928936  0.25045286     0.13000
H210        H  0.14220707  0.03196154  0.25147891     0.13000
H211        H  0.85901536  0.86493984  0.25290855     0.13000
H212        H  0.91658862  0.80762204  0.25539257     0.13000
H213        H  0.97751768  0.97138819  0.24158938     0.26300
H214        H  0.02372812  0.92539920  0.25211018     0.26300
C215        C  0.78276267  0.96968489  0.21356032     0.80300
N216        N  0.76160270  0.95119454  0.24999279    -0.78000
C217        C  0.78247085  0.93175846  0.28606154     0.82800
N218        N  0.82486138  0.93096212  0.28532138    -0.77900
C219        C  0.84623083  0.94886716  0.24882091     0.82900
N220        N  0.82505250  0.96808571  0.21306801    -0.79600
C221        C  0.02035421  0.73122517  0.28411070     0.80300
N222        N  0.01968308  0.77346575  0.28397807    -0.78000
C223        C  0.99985525  0.79461557  0.24872943     0.82800
N224        N  0.97986169  0.77330718  0.21346393    -0.77900
C225        C  0.97948886  0.73098249  0.21333181     0.82900
N226        N  0.00006756  0.71005955  0.24864445    -0.79600
C227        C  0.21946290  0.96642591  0.28594861     0.80300
N228        N  0.17705482  0.96712672  0.28549914    -0.78000
C229        C  0.15536776  0.94783777  0.24999725     0.82800
N230        N  0.17638289  0.92741239  0.21485807    -0.77900
C231        C  0.21873802  0.92582519  0.21517249     0.82900
N232        N  0.24008917  0.94566066  0.25068766    -0.79600
O233        O  0.09288313  0.29336531  0.05133267    -0.72800
O234        O  0.15349812  0.35572038  0.94822479    -0.73800
O235        O  0.09163834  0.29217593  0.94968487    -0.62400
O236        O  0.15435030  0.35659550  0.05003484    -0.70800
O237        O  0.20377484  0.30834569  0.04952084    -0.70400
O238        O  0.14084657  0.24368865  0.94962639    -0.61600
O239        O  0.20269092  0.30726915  0.94802922    -0.74200
O240        O  0.14223284  0.24493674  0.05075428    -0.72900
Cu241      Cu  0.12135269  0.32612621  0.99977026     1.04600
Cu242      Cu  0.17411140  0.27440625  0.99944809     1.04300
C243        C  0.10803877  0.25933500  0.06741104     0.93400
C244        C  0.18791688  0.34148604  0.93191360     0.92500
C245        C  0.10609745  0.25766556  0.93391645     0.84700
C246        C  0.18905367  0.34258941  0.06580291     0.90900
O247        O  0.59233280  0.10669581  0.95156231    -0.72800
O248        O  0.65733292  0.04328801  0.04981778    -0.73800
O249        O  0.59541903  0.10611437  0.05359913    -0.62400
O250        O  0.65499195  0.04442256  0.94833310    -0.70800
O251        O  0.70399044  0.09321362  0.94803604    -0.70400
O252        O  0.64463356  0.15460346  0.05278963    -0.61600
O253        O  0.70666853  0.09170527  0.04926238    -0.74200
O254        O  0.64114450  0.15565851  0.95108044    -0.72900
Cu255      Cu  0.62328188  0.07348081  0.00083432     1.04600
Cu256      Cu  0.67576329  0.12553025  0.00020628     1.04300
C257        C  0.60651463  0.14109660  0.93542779     0.93400
C258        C  0.69215390  0.05731284  0.06526462     0.92500
C259        C  0.61076201  0.14008771  0.07010835     0.84700
C260        C  0.68934819  0.05886223  0.93201498     0.90900
O261        O  0.90525055  0.60593060  0.04855445    -0.72800
O262        O  0.84326786  0.54223121  0.94706228    -0.73800
O263        O  0.90417502  0.60574933  0.94667335    -0.62400
O264        O  0.84421696  0.54237684  0.04947169    -0.70800
O265        O  0.79468193  0.59065527  0.05003352    -0.70400
O266        O  0.85415670  0.65336700  0.94639737    -0.61600
O267        O  0.79292141  0.58961566  0.94854805    -0.74200
O268        O  0.85612292  0.65446793  0.04842451    -0.72900
Cu269      Cu  0.87594708  0.57241742  0.99792584     1.04600
Cu270      Cu  0.82273982  0.62370624  0.99839078     1.04300
C271        C  0.89056335  0.64017455  0.06476134     0.93400
C272        C  0.80836260  0.55596889  0.93156104     0.92500
C273        C  0.88856756  0.63931096  0.92984857     0.84700
C274        C  0.81001743  0.55672854  0.06622693     0.90900
O275        O  0.35619096  0.73929397  0.04720242    -0.72800
O276        O  0.29174476  0.80393397  0.94898081    -0.73800
O277        O  0.35469408  0.74145927  0.94569206    -0.62400
O278        O  0.29353918  0.80208163  0.05033711    -0.70800
O279        O  0.34251307  0.85087022  0.05039750    -0.70400
O280        O  0.40378793  0.79010485  0.94659806    -0.61600
O281        O  0.34112299  0.85235812  0.94898342    -0.74200
O282        O  0.40483037  0.78842663  0.04818139    -0.72900
Cu283      Cu  0.32234031  0.76996026  0.99798288     1.04600
Cu284      Cu  0.37474428  0.82210697  0.99849857     1.04300
C285        C  0.39059658  0.75370946  0.06351656     0.93400
C286        C  0.30613601  0.83854853  0.93363276     0.92500
C287        C  0.38915937  0.75599408  0.92984386     0.84700
C288        C  0.30837275  0.83622839  0.06690834     0.90900
O289        O  0.15990741  0.54630707  0.55062442    -0.72800
O290        O  0.09584669  0.60787601  0.44959997    -0.73800
O291        O  0.15894815  0.54619723  0.44846255    -0.62400
O292        O  0.09734994  0.60815261  0.55144243    -0.70800
O293        O  0.14613226  0.65710883  0.55087193    -0.70400
O294        O  0.20776264  0.59517560  0.44802601    -0.61600
O295        O  0.14424664  0.65723115  0.44906462    -0.74200
O296        O  0.20913269  0.59491911  0.54991543    -0.72900
Cu297      Cu  0.12639180  0.57541728  0.50002881     1.04600
Cu298      Cu  0.17853771  0.62782724  0.49941498     1.04300
C299        C  0.19428133  0.56095047  0.56670104     0.93400
C300        C  0.10978423  0.64233080  0.43328154     0.92500
C301        C  0.19296850  0.56096408  0.43168987     0.84700
C302        C  0.11207909  0.64246192  0.56762654     0.90900
O303        O  0.35743143  0.15395467  0.55084499    -0.72800
O304        O  0.29399049  0.08903843  0.45209882    -0.73800
O305        O  0.29566962  0.09045664  0.55327760    -0.62400
O306        O  0.35536564  0.15203844  0.44973987    -0.70800
O307        O  0.40451291  0.10350774  0.44944611    -0.70400
O308        O  0.34499061  0.04208695  0.55429756    -0.61600
O309        O  0.34301788  0.04038023  0.45208252    -0.74200
O310        O  0.40700066  0.10588338  0.55097583    -0.72900
Cu311      Cu  0.32392674  0.12297478  0.50160886     1.04600
Cu312      Cu  0.37663773  0.07123532  0.50178537     1.04300
C313        C  0.39250120  0.14059004  0.56624000     0.93400
C314        C  0.30851961  0.05471749  0.43597635     0.92500
C315        C  0.31037911  0.05646404  0.56996072     0.84700
C316        C  0.38937975  0.13739468  0.43291214     0.90900
O317        O  0.85557497  0.23843996  0.54940708    -0.72800
O318        O  0.79391573  0.30068953  0.44725986    -0.73800
O319        O  0.85720284  0.23901115  0.44816711    -0.62400
O320        O  0.79228443  0.30061351  0.54885163    -0.70800
O321        O  0.84085974  0.34981672  0.54951851    -0.70400
O322        O  0.90579701  0.28820777  0.44974399    -0.61600
O323        O  0.84270790  0.34967639  0.44786051    -0.74200
O324        O  0.90374856  0.28809201  0.55132825    -0.72900
Cu325      Cu  0.82305286  0.26795206  0.49839152     1.04600
Cu326      Cu  0.87495055  0.32064584  0.49968945     1.04300
C327        C  0.88942123  0.25338454  0.56654611     0.93400
C328        C  0.80854397  0.33495621  0.43118607     0.92500
C329        C  0.89171006  0.25392949  0.43291103     0.84700
C330        C  0.80635173  0.33519808  0.56505128     0.90900
O331        O  0.64390881  0.74405611  0.44579146    -0.72800
O332        O  0.70428613  0.80584224  0.54952461    -0.73800
O333        O  0.64220927  0.74301224  0.54712642    -0.62400
O334        O  0.70640608  0.80715724  0.44852980    -0.70800
O335        O  0.65705760  0.85550332  0.44795866    -0.70400
O336        O  0.59315385  0.79167538  0.54754452    -0.61600
O337        O  0.65519689  0.85449670  0.54950844    -0.74200
O338        O  0.59461309  0.79244633  0.44555699    -0.72900
Cu339      Cu  0.67586472  0.77332661  0.49772968     1.04600
Cu340      Cu  0.62325462  0.82520996  0.49757983     1.04300
C341        C  0.60955600  0.75831278  0.42928165     0.93400
C342        C  0.68954304  0.84003261  0.56575693     0.92500
C343        C  0.60772698  0.75721614  0.56323471     0.84700
C344        C  0.69208036  0.84169214  0.43283282     0.90900
C345        C  0.30527605  0.99969076  0.37233200    -0.21200
C346        C  0.28553808  0.03184362  0.39799423    -0.09200
C347        C  0.24402163  0.04217071  0.38638333     0.29600
C348        C  0.22297360  0.02071708  0.35006035    -0.21200
C349        C  0.24268823  0.98864046  0.32428592    -0.09200
C350        C  0.28422366  0.97829224  0.33583183     0.29600
F351        F  0.30431685  0.94691421  0.31274913    -0.19800
H352        H  0.33721507  0.99112413  0.38036490     0.18000
H353        H  0.19111467  0.02951676  0.34192101     0.18000
F354        F  0.22338365  0.07266036  0.41040349    -0.19800
C355        C  0.24423295  0.84856971  0.11591925    -0.21200
C356        C  0.28576474  0.85903281  0.10518322    -0.09200
C357        C  0.30507891  0.89143633  0.13123879     0.29600
C358        C  0.28315382  0.91274199  0.16697202    -0.21200
C359        C  0.24147248  0.90262016  0.17730982    -0.09200
C360        C  0.22219913  0.87010685  0.15139060     0.29600
F361        F  0.18235368  0.85837699  0.16084402    -0.19800
H362        H  0.22856495  0.82374765  0.09660655     0.18000
H363        H  0.29881477  0.93754938  0.18631815     0.18000
F364        F  0.34532940  0.90234871  0.12276129    -0.19800
C365        C  0.03435960  0.66651301  0.33158480    -0.21200
C366        C  0.04289910  0.70875251  0.32279141    -0.09200
C367        C  0.07287612  0.72916786  0.35165746     0.29600
C368        C  0.09440915  0.70733444  0.38724448    -0.21200
C369        C  0.08603939  0.66504612  0.39581770    -0.09200
C370        C  0.05518237  0.64497386  0.36802815     0.29600
F371        F  0.04540740  0.60433844  0.37544497    -0.19800
H372        H  0.01114010  0.65009945  0.31051835     0.18000
H373        H  0.11755704  0.72375501  0.40842056     0.18000
F374        F  0.08200427  0.77012012  0.34535318    -0.19800
C375        C  0.96776314  0.66681861  0.16393764    -0.21200
C376        C  0.95658528  0.70798332  0.17525071    -0.09200
C377        C  0.92331833  0.72659547  0.14999529     0.29600
C378        C  0.90196725  0.70433231  0.11441939    -0.21200
C379        C  0.91345799  0.66328644  0.10275520    -0.09200
C380        C  0.94669409  0.64470955  0.12803512     0.29600
F381        F  0.95865722  0.60495110  0.11865824    -0.19800
H382        H  0.99320204  0.65171411  0.18267044     0.18000
H383        H  0.87644157  0.71942147  0.09581811     0.18000
F384        F  0.91067097  0.76599844  0.16020991    -0.19800
C385        C  0.77981035  0.87971472  0.35251612    -0.21200
C386        C  0.75949608  0.91027383  0.32499137    -0.09200
C387        C  0.71727622  0.91911656  0.33463420     0.29600
C388        C  0.69590037  0.89713733  0.37018770    -0.21200
C389        C  0.71587912  0.86572476  0.39667842    -0.09200
C390        C  0.75837161  0.85757593  0.38784902     0.29600
F391        F  0.77945296  0.82843617  0.41343910    -0.19800
H392        H  0.81231325  0.87229774  0.34618128     0.18000
H393        H  0.66334771  0.90435448  0.37646057     0.18000
F394        F  0.69654295  0.94914641  0.31007545    -0.19800
C395        C  0.71884156  0.98027351  0.16377423    -0.21200
C396        C  0.76005411  0.99159710  0.17490623    -0.09200
C397        C  0.77901200  0.02415218  0.14904129     0.29600
C398        C  0.75685753  0.04507434  0.11329682    -0.21200
C399        C  0.71555039  0.03388530  0.10225052    -0.09200
C400        C  0.69682125  0.00089471  0.12766841     0.29600
F401        F  0.65696249  0.98892645  0.11844381    -0.19800
H402        H  0.70361232  0.95520122  0.18293179     0.18000
H403        H  0.77210425  0.07026849  0.09437515     0.18000
F404        F  0.81852265  0.03674917  0.15913356    -0.19800
C405        C  0.96817541  0.22935904  0.33307375    -0.21200
C406        C  0.95863093  0.18745803  0.32317419    -0.09200
C407        C  0.92708352  0.16767515  0.34989980     0.29600
C408        C  0.90566730  0.18951856  0.38547257    -0.21200
C409        C  0.91527958  0.23134522  0.39547627    -0.09200
C410        C  0.94695313  0.25111713  0.36895189     0.29600
F411        F  0.95695153  0.29168520  0.37685379    -0.19800
H412        H  0.99225673  0.24539159  0.31308757     0.18000
H413        H  0.88142971  0.17353917  0.40526495     0.18000
F414        F  0.91598911  0.12755606  0.34101602    -0.19800
C415        C  0.03590093  0.23316454  0.17053450    -0.21200
C416        C  0.04278940  0.19011545  0.17564877    -0.09200
C417        C  0.07184933  0.17039355  0.14527173     0.29600
C418        C  0.09311324  0.19327918  0.11060547    -0.21200
C419        C  0.08579369  0.23610343  0.10511924    -0.09200
C420        C  0.05715800  0.25601642  0.13568454     0.29600
F421        F  0.05041476  0.29770455  0.13275671    -0.19800
H422        H  0.01400517  0.24929750  0.19354505     0.18000
H423        H  0.11514001  0.17726362  0.08763789     0.18000
F424        F  0.08042956  0.12912555  0.14931414    -0.19800
C425        C  0.77644890  0.87740217  0.64731127    -0.21200
C426        C  0.75596655  0.90754983  0.67521884    -0.09200
C427        C  0.71336289  0.91554710  0.66652012     0.29600
C428        C  0.69202792  0.89360074  0.63076125    -0.21200
C429        C  0.71249571  0.86309990  0.60333463    -0.09200
C430        C  0.75505460  0.85526712  0.61191384     0.29600
F431        F  0.77634583  0.82667324  0.58567984    -0.19800
H432        H  0.80912687  0.87045843  0.65321084     0.18000
H433        H  0.65929791  0.90029148  0.62480604     0.18000
F434        F  0.69229933  0.94484632  0.69197280    -0.19800
C435        C  0.77680630  0.02031342  0.85173512    -0.21200
C436        C  0.75649520  0.98943434  0.82458678    -0.09200
C437        C  0.71397268  0.98128280  0.83351932     0.29600
C438        C  0.69240010  0.00405450  0.86831220    -0.21200
C439        C  0.71256896  0.03538789  0.89489125    -0.09200
C440        C  0.75520200  0.04315575  0.88639798     0.29600
F441        F  0.77637885  0.07229940  0.91207838    -0.19800
H442        H  0.80946688  0.02727360  0.84575170     0.18000
H443        H  0.65972514  0.99718970  0.87433188     0.18000
F444        F  0.69323987  0.95088288  0.80932563    -0.19800
C445        C  0.92851631  0.16647545  0.64650461    -0.21200
C446        C  0.95510158  0.18819115  0.67805706    -0.09200
C447        C  0.96007102  0.23152529  0.67212430     0.29600
C448        C  0.93882869  0.25232684  0.63558267    -0.21200
C449        C  0.91203456  0.23062405  0.60446308    -0.09200
C450        C  0.90716205  0.18735064  0.61013230     0.29600
F451        F  0.88252248  0.16496049  0.57993777    -0.19800
H452        H  0.92404534  0.13315127  0.64993355     0.18000
H453        H  0.94307263  0.28566731  0.63193818     0.18000
F454        F  0.98573506  0.25395376  0.70109812    -0.19800
C455        C  0.09293586  0.19189949  0.88802008    -0.21200
C456        C  0.08260927  0.23372536  0.89727177    -0.09200
C457        C  0.05011493  0.25225663  0.87082670     0.29600
C458        C  0.02912782  0.22958216  0.83546452    -0.21200
C459        C  0.03960798  0.18788578  0.82596731    -0.09200
C460        C  0.07166680  0.16907331  0.85291713     0.29600
F461        F  0.08338997  0.12904246  0.84462680    -0.19800
H462        H  0.11765142  0.17674742  0.90794665     0.18000
H463        H  0.00447636  0.24480061  0.81550138     0.18000
F464        F  0.03902532  0.29256441  0.87828704    -0.19800
C465        C  0.30667639  0.00370123  0.63590837    -0.21200
C466        C  0.28679256  0.03366492  0.60724707    -0.09200
C467        C  0.24401522  0.04151908  0.61443322     0.29600
C468        C  0.22184728  0.02000503  0.64958086    -0.21200
C469        C  0.24171474  0.99044355  0.67873239    -0.09200
C470        C  0.28457229  0.98245821  0.67153569     0.29600
F471        F  0.30517023  0.95383158  0.69838608    -0.19800
H472        H  0.33953121  0.99697847  0.63110275     0.18000
H473        H  0.18903521  0.02695752  0.65429627     0.18000
F474        F  0.22323887  0.06960474  0.58704551    -0.19800
C475        C  0.30271442  0.89424651  0.87169911    -0.21200
C476        C  0.28242150  0.86290036  0.89785401    -0.09200
C477        C  0.23968044  0.85555604  0.88951726     0.29600
C478        C  0.21818454  0.87862145  0.85499580    -0.21200
C479        C  0.23879623  0.90924534  0.82794721    -0.09200
C480        C  0.28131706  0.91717371  0.83709112     0.29600
F481        F  0.30237732  0.94720765  0.81291604    -0.19800
H482        H  0.33549373  0.90078415  0.87760270     0.18000
H483        H  0.18547408  0.87188377  0.84886853     0.18000
F484        F  0.21844155  0.82642643  0.91491140    -0.19800
C485        C  0.07922944  0.72672420  0.65585162    -0.21200
C486        C  0.04488917  0.70789789  0.67834505    -0.09200
C487        C  0.03326583  0.66726070  0.66460400     0.29600
C488        C  0.05521892  0.64636946  0.62865299    -0.21200
C489        C  0.08951030  0.66518021  0.60597292    -0.09200
C490        C  0.10157278  0.70559984  0.62032065     0.29600
F491        F  0.13467995  0.72503262  0.59987201    -0.19800
H492        H  0.08906283  0.75782688  0.66603819     0.18000
H493        H  0.04523577  0.61529754  0.61857944     0.18000
F494        F  0.00000327  0.64797049  0.68491152    -0.19800
C495        C  0.89670712  0.70186196  0.87718080    -0.21200
C496        C  0.91048142  0.66207816  0.89114124    -0.09200
C497        C  0.94536326  0.64463684  0.86786206     0.29600
C498        C  0.96625852  0.66693945  0.83232114    -0.21200
C499        C  0.95325653  0.70716686  0.81944840    -0.09200
C500        C  0.91788486  0.72431561  0.84186263     0.29600
F501        F  0.90328700  0.76244958  0.82920249    -0.19800
H502        H  0.86968685  0.71591037  0.89395738     0.18000
H503        H  0.99325310  0.65290735  0.81545064     0.18000
F504        F  0.95950680  0.60604302  0.87928523    -0.19800
C505        C  0.78456010  0.48680160  0.82440354    -0.21200
C506        C  0.74086658  0.49015474  0.82118902    -0.09200
C507        C  0.71978156  0.51517677  0.85508602     0.29600
C508        C  0.74206081  0.53660195  0.89044503    -0.21200
C509        C  0.78557420  0.53296748  0.89372889    -0.09200
C510        C  0.80671193  0.50766642  0.86044542     0.29600
F511        F  0.84888044  0.50383251  0.86193703    -0.19800
H512        H  0.80177297  0.46788824  0.79905457     0.18000
H513        H  0.72506608  0.55570539  0.91582827     0.18000
F514        F  0.67762000  0.51924610  0.85438423    -0.19800
C515        C  0.71984166  0.37242544  0.64784582    -0.21200
C516        C  0.74008130  0.40438814  0.67354229    -0.09200
C517        C  0.78191079  0.41368404  0.66255857     0.29600
C518        C  0.80297184  0.39105507  0.62729484    -0.21200
C519        C  0.78300174  0.35868369  0.60211429    -0.09200
C520        C  0.74096883  0.34971213  0.61256768     0.29600
F521        F  0.71998525  0.31949317  0.58835033    -0.19800
H522        H  0.68761243  0.36463954  0.65535956     0.18000
H523        H  0.83519062  0.39890396  0.61983386     0.18000
F524        F  0.80238431  0.44519917  0.68507073    -0.19800
C525        C  0.59309370  0.20583584  0.88859640    -0.21200
C526        C  0.58310428  0.16406611  0.89806097    -0.09200
C527        C  0.55158934  0.14460793  0.87066191     0.29600
C528        C  0.53117549  0.16651923  0.83423001    -0.21200
C529        C  0.54116985  0.20834924  0.82488984    -0.09200
C530        C  0.57238847  0.22785769  0.85265742     0.29600
F531        F  0.58383193  0.26795608  0.84451371    -0.19800
H532        H  0.61713727  0.22163143  0.90906579     0.18000
H533        H  0.50724394  0.15076400  0.81354462     0.18000
F534        F  0.54093301  0.10421365  0.87829912    -0.19800
C535        C  0.45190399  0.14804567  0.62397392    -0.21200
C536        C  0.41626133  0.16520179  0.60221425    -0.09200
C537        C  0.40353586  0.20561350  0.61579511     0.29600
C538        C  0.42521570  0.22741817  0.65146129    -0.21200
C539        C  0.45982312  0.20947949  0.67446592    -0.09200
C540        C  0.47341069  0.16979280  0.65978481     0.29600
F541        F  0.50781915  0.15213876  0.67957522    -0.19800
H542        H  0.46292825  0.11738765  0.61378168     0.18000
H543        H  0.41429546  0.25808592  0.66183335     0.18000
F544        F  0.37008588  0.22416389  0.59490755    -0.19800
C545        C  0.21777846  0.42235856  0.83832734    -0.21200
C546        C  0.25710628  0.40787402  0.82367892    -0.09200
C547        C  0.27317516  0.37135646  0.84450759     0.29600
C548        C  0.25037122  0.35003049  0.87931465    -0.21200
C549        C  0.21117203  0.36462848  0.89445496    -0.09200
C550        C  0.19508322  0.40125011  0.87357472     0.29600
F551        F  0.15749636  0.41681577  0.88703043    -0.19800
H552        H  0.20478436  0.45046118  0.82290387     0.18000
H553        H  0.26359759  0.32192630  0.89444911     0.18000
F554        F  0.31044471  0.35549038  0.83038367    -0.19800
C555        C  0.21648258  0.49206597  0.67404514    -0.21200
C556        C  0.26010017  0.49534884  0.67834218    -0.09200
C557        C  0.28178296  0.52092069  0.64559101     0.29600
C558        C  0.26015722  0.54244962  0.60978660    -0.21200
C559        C  0.21672492  0.53852257  0.60519582    -0.09200
C560        C  0.19501770  0.51314287  0.63781670     0.29600
F561        F  0.15286669  0.50933725  0.63542244    -0.19800
H562        H  0.19876794  0.47292035  0.69862012     0.18000
H563        H  0.27756050  0.56179091  0.58509955     0.18000
F564        F  0.32386219  0.52543391  0.64794504    -0.19800
C565        C  0.42407403  0.67126538  0.84356704    -0.21200
C566        C  0.45892588  0.68987428  0.82197211    -0.09200
C567        C  0.47072451  0.73033185  0.83605385     0.29600
C568        C  0.44779330  0.75162864  0.87092642    -0.21200
C569        C  0.41263501  0.73315631  0.89233636    -0.09200
C570        C  0.40102992  0.69257254  0.87822981     0.29600
F571        F  0.36772691  0.67308127  0.89815589    -0.19800
H572        H  0.41422745  0.64022396  0.83315204     0.18000
H573        H  0.45770310  0.78267055  0.88121631     0.18000
F574        F  0.50494206  0.74897675  0.81704477    -0.19800
C575        C  0.57188036  0.67013965  0.64528906    -0.21200
C576        C  0.54210061  0.69053961  0.67381683    -0.09200
C577        C  0.53365773  0.73297451  0.66511165     0.29600
C578        C  0.55468737  0.75421132  0.62872221    -0.21200
C579        C  0.58483707  0.73389278  0.60063829    -0.09200
C580        C  0.59318583  0.69148755  0.60927064     0.29600
F581        F  0.62159664  0.67035539  0.58262591    -0.19800
H582        H  0.57914451  0.63758142  0.65116308     0.18000
H583        H  0.54769060  0.78684089  0.62294030     0.18000
F584        F  0.50477877  0.75399904  0.69122282    -0.19800
C585        C  0.21757373  0.42086938  0.16318634    -0.21200
C586        C  0.25906009  0.40965001  0.17351710    -0.09200
C587        C  0.27711809  0.37639109  0.14787235     0.29600
C588        C  0.25402189  0.35480267  0.11331764    -0.21200
C589        C  0.21263555  0.36603839  0.10288139    -0.09200
C590        C  0.19458856  0.39953682  0.12816405     0.29600
F591        F  0.15458279  0.41139951  0.11974221    -0.19800
H592        H  0.20279788  0.44632947  0.18222771     0.18000
H593        H  0.26878836  0.32919438  0.09453486     0.18000
F594        F  0.31679146  0.36384576  0.15676676    -0.19800
C595        C  0.21688931  0.48726906  0.32858141    -0.21200
C596        C  0.25943305  0.49528896  0.32055909    -0.09200
C597        C  0.27955948  0.52584683  0.34869513     0.29600
C598        C  0.25767827  0.54715319  0.38441858    -0.21200
C599        C  0.21541743  0.53843506  0.39316851    -0.09200
C600        C  0.19509058  0.50838695  0.36459041     0.29600
F601        F  0.15398489  0.49976009  0.37085980    -0.19800
H602        H  0.20047331  0.46419434  0.30731997     0.18000
H603        H  0.27404559  0.57033107  0.40558850     0.18000
F604        F  0.32022002  0.53580436  0.34135136    -0.19800
C605        C  0.44517894  0.75086697  0.12742421    -0.21200
C606        C  0.41394538  0.73051976  0.10079062    -0.09200
C607        C  0.40526797  0.68836830  0.11066787     0.29600
C608        C  0.42757480  0.66726751  0.14622141    -0.21200
C609        C  0.45860430  0.68769832  0.17314093    -0.09200
C610        C  0.46711036  0.72994595  0.16339145     0.29600
F611        F  0.49697778  0.75109952  0.18799673    -0.19800
H612        H  0.45244386  0.78331816  0.12077616     0.18000
H613        H  0.42013277  0.63488212  0.15302378     0.18000
F614        F  0.37554917  0.66726098  0.08577667    -0.19800
C615        C  0.59812599  0.69330896  0.38150569    -0.21200
C616        C  0.58696962  0.73479593  0.39146704    -0.09200
C617        C  0.55424638  0.75303792  0.36510537     0.29600
C618        C  0.53344878  0.73014051  0.32963689    -0.21200
C619        C  0.54445989  0.68854379  0.31988608    -0.09200
C620        C  0.57712153  0.67032055  0.34633892     0.29600
F621        F  0.58958308  0.63060430  0.33761305    -0.19800
H622        H  0.62316472  0.67841200  0.40114866     0.18000
H623        H  0.50845355  0.74503335  0.30991360     0.18000
F624        F  0.54262846  0.79315934  0.37295243    -0.19800
C625        C  0.78691372  0.48813524  0.17355167    -0.21200
C626        C  0.74301612  0.48993080  0.17547800    -0.09200
C627        C  0.72180584  0.51472430  0.14158933     0.29600
C628        C  0.74397657  0.53646510  0.10662114    -0.21200
C629        C  0.78759228  0.53391257  0.10419985    -0.09200
C630        C  0.80903262  0.50977161  0.13824684     0.29600
F631        F  0.85136813  0.50794289  0.13822768    -0.19800
H632        H  0.80430669  0.46990020  0.19935434     0.18000
H633        H  0.72683137  0.55500574  0.08086294     0.18000
F634        F  0.67962201  0.51840768  0.14206797    -0.19800
C635        C  0.72281562  0.37118891  0.34694055    -0.21200
C636        C  0.74299869  0.40307009  0.32139986    -0.09200
C637        C  0.78512984  0.41186434  0.33188875     0.29600
C638        C  0.80608245  0.38966201  0.36762411    -0.21200
C639        C  0.78586426  0.35782303  0.39315046    -0.09200
C640        C  0.74398281  0.34850698  0.38206885     0.29600
F641        F  0.72315559  0.31783399  0.40544579    -0.19800
H642        H  0.69058353  0.36335455  0.33936409     0.18000
H643        H  0.83837143  0.39732272  0.37512240     0.18000
F644        F  0.80606482  0.44233002  0.30830460    -0.19800
C645        C  0.58107216  0.22342926  0.16129221    -0.21200
C646        C  0.54511133  0.20607660  0.18187168    -0.09200
C647        C  0.53163723  0.16649103  0.16635820     0.29600
C648        C  0.55327035  0.14529605  0.13035485    -0.21200
C649        C  0.58902746  0.16274438  0.10927461    -0.09200
C650        C  0.60311373  0.20195312  0.12572087     0.29600
F651        F  0.63797175  0.21986531  0.10737270    -0.19800
H652        H  0.59239012  0.25359868  0.17306289     0.18000
H653        H  0.54172243  0.11517488  0.11876952     0.18000
F654        F  0.49675933  0.14869128  0.18482152    -0.19800
C655        C  0.46765022  0.16538067  0.33637288    -0.21200
C656        C  0.45428301  0.20544068  0.32324990    -0.09200
C657        C  0.41870182  0.22237701  0.34533819     0.29600
C658        C  0.39738938  0.19973819  0.38028633    -0.21200
C659        C  0.41139643  0.16008398  0.39439386    -0.09200
C660        C  0.44672972  0.14296602  0.37177434     0.29600
F661        F  0.46137948  0.10471289  0.38387518    -0.19800
H662        H  0.49495980  0.15163035  0.31986838     0.18000
H663        H  0.37011857  0.21360187  0.39673085     0.18000
F664        F  0.40408646  0.26052565  0.33277819    -0.19800
loop_ 
_geom_bond_atom_site_label_1 
_geom_bond_atom_site_label_2 
_geom_bond_distance 
_geom_bond_site_symmetry_2 
_ccdc_geom_bond_type 
C1            N2   1.358       .  A
C1            N6   1.357       .  A
C1          C656   1.476       .  S
N2            C3   1.358       .  A
C3            N4   1.361       .  A
C3           C29   1.488       .  S
N4            C5   1.360       .  A
C5            N6   1.356       .  A
C5          C646   1.481       .  S
N7           C12   1.356       .  A
N7           C11   1.356       .  A
N7           H39   1.027       .  S
N8           C15   1.354       .  A
N8           C16   1.354       .  A
N9           C14   1.357       .  A
N9           C13   1.358       .  A
N9           H40   1.032       .  S
N10          C17   1.355       .  A
N10          C18   1.353       .  A
C11          C19   1.386       .  A
C11          C27   1.424       .  A
C12          C28   1.429       .  A
C12          C20   1.390       .  A
C13          C21   1.389       .  A
C13          C30   1.427       .  A
C14          C29   1.424       .  A
C14          C22   1.387       .  A
C15          C27   1.421       .  A
C15          C23   1.386       .  A
C16          C30   1.424       .  A
C16          C24   1.389       .  A
C17          C25   1.389       .  A
C17          C28   1.425       .  A
C18          C26   1.386       .  A
C18          C29   1.419       .  A
C19          C20   1.372       .  A
C19          H31   1.082       .  S
C20          H32   1.080       .  S
C21          C22   1.372       .  A
C21          H33   1.079       .  S
C22          H34   1.082       .  S
C23          C24   1.367       .  A
C23          H35   1.082       .  S
C24          H36   1.080       .  S
C25          C26   1.367       .  A
C25          H37   1.080       .  S
C26          H38   1.082       .  S
C27          C49   1.489       .  S
C28          C43   1.492       .  S
C30          C55   1.492       .  S
C41          N42   1.359       .  A
C41          N46   1.359       .  A
C41         C636   1.484       .  S
N42          C43   1.358       .  A
C43          N44   1.357       .  A
N44          C45   1.359       .  A
C45          N46   1.359       .  A
C45         C626   1.488       .  S
C47          N48   1.360       .  A
C47          N52   1.358       .  A
C47         C609   1.485       .  S
N48          C49   1.359       .  A
C49          N50   1.359       .  A
N50          C51   1.360       .  A
C51          N52   1.359       .  A
C51         C619   1.484       .  S
C53          N54   1.361       .  A
C53          N58   1.360       .  A
C53         C586   1.486       .  S
N54          C55   1.360       .  A
C55          N56   1.357       .  A
N56          C57   1.358       .  A
C57          N58   1.359       .  A
C57         C596   1.484       .  S
C59          N60   1.360       .  A
C59          N64   1.358       .  A
C59         C576   1.482       .  S
N60          C61   1.358       .  A
C61          N62   1.357       .  A
C61          C87   1.486       .  S
N62          C63   1.357       .  A
C63          N64   1.357       .  A
C63         C566   1.477       .  S
N65          C70   1.354       .  A
N65          C69   1.354       .  A
N65          H97   1.027       .  S
N66          C73   1.352       .  A
N66          C74   1.352       .  A
N67          C72   1.354       .  A
N67          C71   1.353       .  A
N67          H98   1.025       .  S
N68          C75   1.353       .  A
N68          C76   1.354       .  A
C69          C77   1.389       .  A
C69          C85   1.423       .  A
C70          C86   1.424       .  A
C70          C78   1.388       .  A
C71          C79   1.388       .  A
C71          C88   1.423       .  A
C72          C87   1.424       .  A
C72          C80   1.389       .  A
C73          C85   1.422       .  A
C73          C81   1.389       .  A
C74          C88   1.419       .  A
C74          C82   1.387       .  A
C75          C83   1.388       .  A
C75          C86   1.423       .  A
C76          C84   1.388       .  A
C76          C87   1.424       .  A
C77          C78   1.372       .  A
C77          H89   1.081       .  S
C78          H90   1.081       .  S
C79          C80   1.372       .  A
C79          H91   1.081       .  S
C80          H92   1.081       .  S
C81          C82   1.368       .  A
C81          H93   1.080       .  S
C82          H94   1.082       .  S
C83          C84   1.368       .  A
C83          H95   1.081       .  S
C84          H96   1.081       .  S
C85         C107   1.482       .  S
C86         C101   1.486       .  S
C88         C115   1.481       .  S
C99         N100   1.359       .  A
C99         N104   1.360       .  A
C99         C546   1.480       .  S
N100        C101   1.358       .  A
C101        N102   1.357       .  A
N102        C103   1.357       .  A
C103        N104   1.361       .  A
C103        C556   1.488       .  S
C105        N106   1.356       .  A
C105        N110   1.360       .  A
C105        C529   1.481       .  S
N106        C107   1.355       .  A
C107        N108   1.358       .  A
N108        C109   1.359       .  A
C109        N110   1.361       .  A
C109        C539   1.480       .  S
C111        N112   1.361       .  A
C111        N116   1.356       .  A
C111        C506   1.487       .  S
N112        C113   1.361       .  A
C113        N114   1.358       .  A
C113        C516   1.483       .  S
N114        C115   1.357       .  A
C115        N116   1.355       .  A
C117        N118   1.358       .  A
C117        N122   1.358       .  A
C117        C499   1.479       .  S
N118        C119   1.358       .  A
C119        N120   1.359   1_655  A
C119        C145   1.485       .  S
N120        C121   1.358       .  A
C121        N122   1.357   1_455  A
C121        C486   1.480       .  S
N123        C128   1.354       .  A
N123        C127   1.351   1_565  A
N123        H155   1.025       .  S
N124        C131   1.352   1_565  A
N124        C132   1.354       .  A
N125        C130   1.354       .  A
N125        C129   1.357       .  A
N125        H156   1.027       .  S
N126        C133   1.355       .  A
N126        C134   1.353       .  A
C127        C135   1.388       .  A
C127        C143   1.421   1_455  A
C128        C144   1.423       .  A
C128        C136   1.388   1_565  A
C129        C137   1.389       .  A
C129        C146   1.426       .  A
C130        C145   1.425       .  A
C130        C138   1.388       .  A
C131        C143   1.420       .  A
C131        C139   1.387       .  A
C132        C146   1.422       .  A
C132        C140   1.388   1_565  A
C133        C141   1.387       .  A
C133        C144   1.423       .  A
C134        C142   1.388       .  A
C134        C145   1.422   1_455  A
C135        C136   1.371       .  A
C135        H147   1.082       .  S
C136        H148   1.081       .  S
C137        C138   1.373       .  A
C137        H149   1.080       .  S
C138        H150   1.082       .  S
C139        C140   1.368       .  A
C139        H151   1.082       .  S
C140        H152   1.081       .  S
C141        C142   1.369       .  A
C141        H153   1.081       .  S
C142        H154   1.081       .  S
C143        C167   1.477       .  S
C144        C159   1.487       .  S
C146        C171   1.489       .  S
C157        N158   1.361       .  A
C157        N162   1.356       .  A
C157        C469   1.483       .  S
N158        C159   1.360       .  A
C159        N160   1.357       .  A
N160        C161   1.358       .  A
C161        N162   1.357       .  A
C161        C479   1.480       .  S
C163        N164   1.359       .  A
C163        N168   1.357       .  A
C163        C446   1.483       .  S
N164        C165   1.359   1_655  A
C165        N166   1.357       .  A
C165        C459   1.480       .  S
N166        C167   1.356   1_455  A
C167        N168   1.355       .  A
C169        N170   1.360       .  A
C169        N174   1.357       .  A
C169        C436   1.482       .  S
N170        C171   1.359       .  A
C171        N172   1.357       .  A
N172        C173   1.359       .  A
C173        N174   1.357       .  A
C173        C426   1.480       .  S
C175        N176   1.357       .  A
C175        N180   1.359       .  A
C175        C416   1.481       .  S
N176        C177   1.355       .  A
C177        N178   1.356   1_455  A
C177        C201   1.482       .  S
N178        C179   1.357       .  A
C179        N180   1.359   1_655  A
C179        C406   1.480       .  S
N181        C186   1.354       .  A
N181        C185   1.353   1_565  A
N181        H213   1.026       .  S
N182        C189   1.353   1_565  A
N182        C190   1.354       .  A
N183        C188   1.353       .  A
N183        C187   1.354       .  A
N183        H214   1.026       .  S
N184        C191   1.352       .  A
N184        C192   1.351       .  A
C185        C193   1.389       .  A
C185        C201   1.423   1_655  A
C186        C202   1.422       .  A
C186        C194   1.388   1_565  A
C187        C195   1.389       .  A
C187        C204   1.425       .  A
C188        C203   1.423   1_455  A
C188        C196   1.388       .  A
C189        C201   1.423       .  A
C189        C197   1.388       .  A
C190        C204   1.423       .  A
C190        C198   1.387   1_565  A
C191        C199   1.387       .  A
C191        C202   1.419       .  A
C192        C200   1.388       .  A
C192        C203   1.419       .  A
C193        C194   1.370       .  A
C193        H205   1.081       .  S
C194        H206   1.081       .  S
C195        C196   1.370       .  A
C195        H207   1.081       .  S
C196        H208   1.081       .  S
C197        C198   1.370       .  A
C197        H209   1.081       .  S
C198        H210   1.081       .  S
C199        C200   1.368       .  A
C199        H211   1.081       .  S
C200        H212   1.081       .  S
C202        C219   1.482       .  S
C203        C223   1.480       .  S
C204        C229   1.487       .  S
C215        N216   1.360       .  A
C215        N220   1.356       .  A
C215        C396   1.480       .  S
N216        C217   1.360       .  A
C217        N218   1.359       .  A
C217        C386   1.484       .  S
N218        C219   1.357       .  A
C219        N220   1.356       .  A
C221        N222   1.355       .  A
C221        N226   1.363       .  A
C221        C366   1.486       .  S
N222        C223   1.354   1_455  A
C223        N224   1.357       .  A
N224        C225   1.358       .  A
C225        N226   1.363   1_655  A
C225        C376   1.485       .  S
C227        N228   1.359       .  A
C227        N232   1.360       .  A
C227        C349   1.483       .  S
N228        C229   1.357       .  A
C229        N230   1.358       .  A
N230        C231   1.358       .  A
C231        N232   1.360       .  A
C231        C359   1.484       .  S
O233       Cu241   2.004   1_554  S
O233        C243   1.277       .  A
O234       Cu241   2.010       .  S
O234        C244   1.278       .  A
O235       Cu241   2.008       .  S
O235        C245   1.278       .  A
O236       Cu241   2.007   1_554  S
O236        C246   1.278       .  A
O237       Cu242   2.007   1_554  S
O237        C246   1.279       .  A
O238       Cu242   2.007       .  S
O238        C245   1.278       .  A
O239       Cu242   2.005       .  S
O239        C244   1.278       .  A
O240       Cu242   1.999   1_554  S
O240        C243   1.277       .  A
Cu241      Cu242   2.370       .  S
C243        C419   1.475       .  S
C244        C549   1.485       .  S
C245        C456   1.482       .  S
C246        C589   1.483       .  S
O247       Cu255   2.004   1_556  S
O247        C257   1.277       .  A
O248       Cu255   2.000       .  S
O248        C258   1.277       .  A
O249       Cu255   2.015       .  S
O249        C259   1.280       .  A
O250       Cu255   2.012   1_556  S
O250        C260   1.279       .  A
O251       Cu256   2.003   1_556  S
O251        C260   1.277       .  A
O252       Cu256   2.005       .  S
O252        C259   1.277       .  A
O253       Cu256   2.009       .  S
O253        C258   1.279       .  A
O254       Cu256   2.012   1_556  S
O254        C257   1.279       .  A
Cu255      Cu256   2.369       .  S
C257        C526   1.482       .  S
C258        C399   1.481       .  S
C259        C649   1.486       .  S
C260        C439   1.481       .  S
O261       Cu269   2.005   1_554  S
O261        C271   1.278       .  A
O262       Cu269   2.009       .  S
O262        C272   1.278       .  A
O263       Cu269   2.004       .  S
O263        C273   1.278       .  A
O264       Cu269   2.010   1_554  S
O264        C274   1.278       .  A
O265       Cu270   2.005   1_554  S
O265        C274   1.278       .  A
O266       Cu270   2.009       .  S
O266        C273   1.278       .  A
O267       Cu270   2.008       .  S
O267        C272   1.278       .  A
O268       Cu270   2.014   1_554  S
O268        C271   1.279       .  A
Cu269      Cu270   2.370       .  S
C271        C379   1.485       .  S
C272        C509   1.478       .  S
C273        C496   1.483       .  S
C274        C629   1.477       .  S
O275       Cu283   2.009   1_554  S
O275        C285   1.278       .  A
O276       Cu283   2.006       .  S
O276        C286   1.277       .  A
O277       Cu283   2.010       .  S
O277        C287   1.278       .  A
O278       Cu283   2.012   1_554  S
O278        C288   1.279       .  A
O279       Cu284   2.004   1_554  S
O279        C288   1.277       .  A
O280       Cu284   2.004       .  S
O280        C287   1.278       .  A
O281       Cu284   2.004       .  S
O281        C286   1.278       .  A
O282       Cu284   2.006   1_554  S
O282        C285   1.278       .  A
Cu283      Cu284   2.369       .  S
C285        C606   1.482       .  S
C286        C476   1.479       .  S
C287        C569   1.483       .  S
C288        C356   1.483       .  S
O289       Cu297   2.006       .  S
O289        C299   1.277       .  A
O290       Cu297   2.007       .  S
O290        C300   1.277       .  A
O291       Cu297   2.010       .  S
O291        C301   1.278       .  A
O292       Cu297   2.007       .  S
O292        C302   1.278       .  A
O293       Cu298   2.006       .  S
O293        C302   1.277       .  A
O294       Cu298   2.007       .  S
O294        C301   1.278       .  A
O295       Cu298   2.019       .  S
O295        C300   1.280       .  A
O296       Cu298   2.017       .  S
O296        C299   1.279       .  A
Cu297      Cu298   2.370       .  S
C299        C559   1.480       .  S
C300        C369   1.485       .  S
C301        C599   1.482       .  S
C302        C489   1.483       .  S
O303       Cu311   2.004       .  S
O303        C313   1.277       .  A
O304       Cu311   2.000       .  S
O304        C314   1.277       .  A
O305       Cu311   1.999       .  S
O305        C315   1.277       .  A
O306       Cu311   1.997       .  S
O306        C316   1.277       .  A
O307       Cu312   2.003       .  S
O307        C316   1.278       .  A
O308       Cu312   2.015       .  S
O308        C315   1.279       .  A
O309       Cu312   2.013       .  S
O309        C314   1.279       .  A
O310       Cu312   2.013       .  S
O310        C313   1.279       .  A
Cu311      Cu312   2.369       .  S
C313        C536   1.485       .  S
C314        C346   1.482       .  S
C315        C466   1.481       .  S
C316        C659   1.479       .  S
O317       Cu325   2.003       .  S
O317        C327   1.277       .  A
O318       Cu325   2.004       .  S
O318        C328   1.277       .  A
O319       Cu325   2.006       .  S
O319        C329   1.279       .  A
O320       Cu325   2.013       .  S
O320        C330   1.279       .  A
O321       Cu326   2.001       .  S
O321        C330   1.278       .  A
O322       Cu326   2.001       .  S
O322        C329   1.277       .  A
O323       Cu326   2.008       .  S
O323        C328   1.278       .  A
O324       Cu326   2.006       .  S
O324        C327   1.278       .  A
Cu325      Cu326   2.371       .  S
C327        C449   1.477       .  S
C328        C639   1.482       .  S
C329        C409   1.479       .  S
C330        C519   1.482       .  S
O331       Cu339   2.005       .  S
O331        C341   1.278       .  A
O332       Cu339   1.999       .  S
O332        C342   1.277       .  A
O333       Cu339   2.005       .  S
O333        C343   1.277       .  A
O334       Cu339   2.008       .  S
O334        C344   1.278       .  A
O335       Cu340   2.011       .  S
O335        C344   1.279       .  A
O336       Cu340   2.011       .  S
O336        C343   1.279       .  A
O337       Cu340   2.004       .  S
O337        C342   1.278       .  A
O338       Cu340   2.010       .  S
O338        C341   1.278       .  A
Cu339      Cu340   2.370       .  S
C341        C616   1.483       .  S
C342        C429   1.477       .  S
C343        C579   1.481       .  S
C344        C389   1.483       .  S
C345        C346   1.406   1_565  A
C345        C350   1.399       .  A
C345        H352   1.083       .  S
C346        C347   1.409       .  A
C347        C348   1.396       .  A
C347        F354   1.358       .  S
C348        C349   1.405   1_545  A
C348        H353   1.083       .  S
C349        C350   1.409       .  A
C350        F351   1.357       .  S
C355        C356   1.405       .  A
C355        C360   1.398       .  A
C355        H362   1.083       .  S
C356        C357   1.409       .  A
C357        C358   1.398       .  A
C357        F364   1.357       .  S
C358        C359   1.405       .  A
C358        H363   1.083       .  S
C359        C360   1.409       .  A
C360        F361   1.357       .  S
C365        C366   1.405       .  A
C365        C370   1.400       .  A
C365        H372   1.083       .  S
C366        C367   1.412       .  A
C367        C368   1.398       .  A
C367        F374   1.358       .  S
C368        C369   1.404       .  A
C368        H373   1.083       .  S
C369        C370   1.410       .  A
C370        F371   1.357       .  S
C375        C376   1.404       .  A
C375        C380   1.399       .  A
C375        H382   1.083       .  S
C376        C377   1.411       .  A
C377        C378   1.399       .  A
C377        F384   1.358       .  S
C378        C379   1.405       .  A
C378        H383   1.083       .  S
C379        C380   1.410       .  A
C380        F381   1.357       .  S
C385        C386   1.406       .  A
C385        C390   1.398       .  A
C385        H392   1.083       .  S
C386        C387   1.409       .  A
C387        C388   1.399       .  A
C387        F394   1.357       .  S
C388        C389   1.405       .  A
C388        H393   1.083       .  S
C389        C390   1.409       .  A
C390        F391   1.358       .  S
C395        C396   1.403       .  A
C395        C400   1.397   1_565  A
C395        H402   1.083       .  S
C396        C397   1.409   1_565  A
C397        C398   1.397       .  A
C397        F404   1.358       .  S
C398        C399   1.405       .  A
C398        H403   1.083       .  S
C399        C400   1.410       .  A
C400        F401   1.357   1_545  S
C405        C406   1.405       .  A
C405        C410   1.397       .  A
C405        H412   1.083       .  S
C406        C407   1.409       .  A
C407        C408   1.395       .  A
C407        F414   1.357       .  S
C408        C409   1.404       .  A
C408        H413   1.083       .  S
C409        C410   1.409       .  A
C410        F411   1.358       .  S
C415        C416   1.406       .  A
C415        C420   1.397       .  A
C415        H422   1.083       .  S
C416        C417   1.410       .  A
C417        C418   1.394       .  A
C417        F424   1.357       .  S
C418        C419   1.403       .  A
C418        H423   1.083       .  S
C419        C420   1.407       .  A
C420        F421   1.358       .  S
C425        C426   1.404       .  A
C425        C430   1.394       .  A
C425        H432   1.083       .  S
C426        C427   1.410       .  A
C427        C428   1.397       .  A
C427        F434   1.358       .  S
C428        C429   1.405       .  A
C428        H433   1.083       .  S
C429        C430   1.407       .  A
C430        F431   1.357       .  S
C435        C436   1.405   1_545  A
C435        C440   1.397       .  A
C435        H442   1.083       .  S
C436        C437   1.410       .  A
C437        C438   1.398   1_565  A
C437        F444   1.358       .  S
C438        C439   1.404       .  A
C438        H443   1.083   1_545  S
C439        C440   1.409       .  A
C440        F441   1.357       .  S
C445        C446   1.407       .  A
C445        C450   1.396       .  A
C445        H452   1.083       .  S
C446        C447   1.409       .  A
C447        C448   1.397       .  A
C447        F454   1.357       .  S
C448        C449   1.404       .  A
C448        H453   1.083       .  S
C449        C450   1.406       .  A
C450        F451   1.358       .  S
C455        C456   1.406       .  A
C455        C460   1.398       .  A
C455        H462   1.083       .  S
C456        C457   1.408       .  A
C457        C458   1.396       .  A
C457        F464   1.357       .  S
C458        C459   1.404       .  A
C458        H463   1.083       .  S
C459        C460   1.409       .  A
C460        F461   1.358       .  S
C465        C466   1.405       .  A
C465        C470   1.400   1_545  A
C465        H472   1.083   1_545  S
C466        C467   1.408       .  A
C467        C468   1.396       .  A
C467        F474   1.357       .  S
C468        C469   1.403   1_545  A
C468        H473   1.083       .  S
C469        C470   1.412       .  A
C470        F471   1.358       .  S
C475        C476   1.404       .  A
C475        C480   1.395       .  A
C475        H482   1.083       .  S
C476        C477   1.408       .  A
C477        C478   1.397       .  A
C477        F484   1.357       .  S
C478        C479   1.406       .  A
C478        H483   1.083       .  S
C479        C480   1.409       .  A
C480        F481   1.357       .  S
C485        C486   1.405       .  A
C485        C490   1.398       .  A
C485        H492   1.083       .  S
C486        C487   1.408       .  A
C487        C488   1.397       .  A
C487        F494   1.358       .  S
C488        C489   1.405       .  A
C488        H493   1.083       .  S
C489        C490   1.410       .  A
C490        F491   1.357       .  S
C495        C496   1.407       .  A
C495        C500   1.399       .  A
C495        H502   1.083       .  S
C496        C497   1.409       .  A
C497        C498   1.396       .  A
C497        F504   1.357       .  S
C498        C499   1.404       .  A
C498        H503   1.083       .  S
C499        C500   1.407       .  A
C500        F501   1.358       .  S
C505        C506   1.407       .  A
C505        C510   1.399       .  A
C505        H512   1.083       .  S
C506        C507   1.413       .  A
C507        C508   1.396       .  A
C507        F514   1.357       .  S
C508        C509   1.402       .  A
C508        H513   1.083       .  S
C509        C510   1.407       .  A
C510        F511   1.357       .  S
C515        C516   1.407       .  A
C515        C520   1.399       .  A
C515        H522   1.083       .  S
C516        C517   1.407       .  A
C517        C518   1.397       .  A
C517        F524   1.357       .  S
C518        C519   1.406       .  A
C518        H523   1.083       .  S
C519        C520   1.408       .  A
C520        F521   1.358       .  S
C525        C526   1.403       .  A
C525        C530   1.395       .  A
C525        H532   1.083       .  S
C526        C527   1.410       .  A
C527        C528   1.399       .  A
C527        F534   1.357       .  S
C528        C529   1.405       .  A
C528        H533   1.083       .  S
C529        C530   1.410       .  A
C530        F531   1.357       .  S
C535        C536   1.406       .  A
C535        C540   1.398       .  A
C535        H542   1.083       .  S
C536        C537   1.411       .  A
C537        C538   1.399       .  A
C537        F544   1.358       .  S
C538        C539   1.405       .  A
C538        H543   1.083       .  S
C539        C540   1.406       .  A
C540        F541   1.357       .  S
C545        C546   1.405       .  A
C545        C550   1.400       .  A
C545        H552   1.083       .  S
C546        C547   1.407       .  A
C547        C548   1.397       .  A
C547        F554   1.357       .  S
C548        C549   1.406       .  A
C548        H553   1.083       .  S
C549        C550   1.410       .  A
C550        F551   1.357       .  S
C555        C556   1.406       .  A
C555        C560   1.398       .  A
C555        H562   1.083       .  S
C556        C557   1.413       .  A
C557        C558   1.399       .  A
C557        F564   1.357       .  S
C558        C559   1.403       .  A
C558        H563   1.083       .  S
C559        C560   1.407       .  A
C560        F561   1.358       .  S
C565        C566   1.403       .  A
C565        C570   1.396       .  A
C565        H572   1.083       .  S
C566        C567   1.407       .  A
C567        C568   1.398       .  A
C567        F574   1.358       .  S
C568        C569   1.407       .  A
C568        H573   1.083       .  S
C569        C570   1.409       .  A
C570        F571   1.357       .  S
C575        C576   1.405       .  A
C575        C580   1.397       .  A
C575        H582   1.083       .  S
C576        C577   1.410       .  A
C577        C578   1.398       .  A
C577        F584   1.358       .  S
C578        C579   1.405       .  A
C578        H583   1.083       .  S
C579        C580   1.408       .  A
C580        F581   1.357       .  S
C585        C586   1.407       .  A
C585        C590   1.400       .  A
C585        H592   1.083       .  S
C586        C587   1.409       .  A
C587        C588   1.397       .  A
C587        F594   1.356       .  S
C588        C589   1.405       .  A
C588        H593   1.083       .  S
C589        C590   1.409       .  A
C590        F591   1.358       .  S
C595        C596   1.405       .  A
C595        C600   1.399       .  A
C595        H602   1.083       .  S
C596        C597   1.410       .  A
C597        C598   1.397       .  A
C597        F604   1.357       .  S
C598        C599   1.404       .  A
C598        H603   1.083       .  S
C599        C600   1.408       .  A
C600        F601   1.357       .  S
C605        C606   1.405       .  A
C605        C610   1.398       .  A
C605        H612   1.083       .  S
C606        C607   1.408       .  A
C607        C608   1.398       .  A
C607        F614   1.357       .  S
C608        C609   1.406       .  A
C608        H613   1.083       .  S
C609        C610   1.410       .  A
C610        F611   1.357       .  S
C615        C616   1.406       .  A
C615        C620   1.398       .  A
C615        H622   1.083       .  S
C616        C617   1.408       .  A
C617        C618   1.399       .  A
C617        F624   1.358       .  S
C618        C619   1.407       .  A
C618        H623   1.083       .  S
C619        C620   1.408       .  A
C620        F621   1.357       .  S
C625        C626   1.409       .  A
C625        C630   1.400       .  A
C625        H632   1.083       .  S
C626        C627   1.411       .  A
C627        C628   1.396       .  A
C627        F634   1.357       .  S
C628        C629   1.402       .  A
C628        H633   1.083       .  S
C629        C630   1.406       .  A
C630        F631   1.358       .  S
C635        C636   1.406       .  A
C635        C640   1.397       .  A
C635        H642   1.083       .  S
C636        C637   1.409       .  A
C637        C638   1.398       .  A
C637        F644   1.357       .  S
C638        C639   1.405       .  A
C638        H643   1.083       .  S
C639        C640   1.408       .  A
C640        F641   1.358       .  S
C645        C646   1.404       .  A
C645        C650   1.400       .  A
C645        H652   1.083       .  S
C646        C647   1.408       .  A
C647        C648   1.397       .  A
C647        F654   1.358       .  S
C648        C649   1.405       .  A
C648        H653   1.083       .  S
C649        C650   1.412       .  A
C650        F651   1.357       .  S
C655        C656   1.404       .  A
C655        C660   1.396       .  A
C655        H662   1.083       .  S
C656        C657   1.406       .  A
C657        C658   1.396       .  A
C657        F664   1.357       .  S
C658        C659   1.406       .  A
C658        H663   1.083       .  S
C659        C660   1.408       .  A
C660        F661   1.358       .  S
