geometry optimzed in LAMMPS
_audit_creation_date              2020-11-30 
_audit_creation_method            'lammps2cif' 
_symmetry_space_group_name_H-M    'P1' 
_symmetry_Int_Tables_number       1 
_symmetry_cell_setting            triclinic 
loop_ 
_symmetry_equiv_pos_as_xyz 
  x,y,z 
_cell_length_a                    34.96990664 
_cell_length_b                    34.956773112628625 
_cell_length_c                    34.94339716049655 
_cell_angle_alpha                 90.00393494299973 
_cell_angle_beta                  89.99593147692045 
_cell_angle_gamma                 90.0028295844597 
loop_ 
_atom_site_label 
_atom_site_type_symbol 
_atom_site_fract_x 
_atom_site_fract_y 
_atom_site_fract_z 
_atom_site_charge 
N1          N  0.99721323  0.24879171  0.19126728    -0.34700
N2          N  0.99905738  0.18925650  0.25028003    -0.55200
N3          N  0.99673738  0.24816486  0.30951968    -0.34700
N4          N  0.99928994  0.30764145  0.25040622    -0.55200
C5          C  0.00269503  0.21756279  0.16907783     0.28900
C6          C  0.00330585  0.28001520  0.16917123     0.28900
C7          C  0.00200574  0.21690533  0.33177266     0.28900
C8          C  0.00127004  0.27942272  0.33191020     0.28900
C9          C  0.99588563  0.16653757  0.21912615     0.37500
C10         C  0.99696035  0.16612291  0.28123804     0.37500
C11         C  0.99657028  0.33067299  0.21940889     0.37500
C12         C  0.99591808  0.33040304  0.28151667     0.37500
C13         C  0.01162845  0.22912195  0.13213550    -0.20000
C14         C  0.01200802  0.26843634  0.13219533    -0.20000
C15         C  0.00900959  0.22850038  0.36912043    -0.20000
C16         C  0.00852094  0.26783114  0.36920766    -0.20000
C17         C  0.99216834  0.12865586  0.23037302    -0.21000
C18         C  0.99304462  0.12837330  0.26963712    -0.21000
C19         C  0.99199641  0.36835581  0.23091068    -0.21000
C20         C  0.99162810  0.36819600  0.27016329    -0.21000
C21         C  0.99876123  0.17893566  0.18067335    -0.16400
C22         C  0.00006824  0.31866399  0.18090151    -0.16400
C23         C  0.99827967  0.31811105  0.32006064    -0.16400
C24         C  0.99982556  0.17820719  0.31980897    -0.16400
H25         H  0.01731744  0.21111609  0.10758670     0.16500
H26         H  0.01799884  0.28642035  0.10770365     0.16500
H27         H  0.01407745  0.21052605  0.39382779     0.16500
H28         H  0.01316934  0.28582084  0.39398474     0.16500
H29         H  0.98973844  0.10370002  0.21219372     0.14800
H30         H  0.99124233  0.10318135  0.28755760     0.14800
H31         H  0.98952504  0.39344301  0.21292482     0.14800
H32         H  0.98878927  0.39316469  0.28825951     0.14800
H33         H  0.98619069  0.24875661  0.21874553     0.28100
H34         H  0.98738846  0.24820817  0.28146314     0.28100
O35         O  0.99993900  0.10820033  0.06210855    -0.84600
O36         O  0.00096269  0.38997384  0.06270528    -0.84700
O37         O  0.43841440  0.00017259  0.10907787    -0.86400
O38         O  0.06163727  0.99882529  0.10905705    -0.85200
O39         O  0.10863645  0.49851101  0.06233304    -0.84700
O40         O  0.39163923  0.50126171  0.06253638    -0.86100
O41         O  0.00111158  0.43659417  0.10913016    -0.84600
O42         O  0.99886621  0.06170142  0.10863998    -0.84200
Zr43       Zr  0.99973692  0.49905724  0.07767906     2.84300
O44         O  0.03832304  0.46053496  0.03897963    -1.06200
O45         O  0.46214166  0.03809165  0.03880846    -1.06900
C46         C  0.99933303  0.09681950  0.09724817     1.08500
C47         C  0.00141797  0.40141347  0.09782882     1.08500
C48         C  0.40326267  0.00045607  0.09766473     1.11500
C49         C  0.09676595  0.99869294  0.09764588     1.09300
H50         H  0.44526780  0.44467302  0.05509678     0.34800
O51         O  0.46129078  0.46047641  0.03913355    -1.27100
H52         H  0.05444833  0.05404668  0.05476156     0.34500
O53         O  0.03852732  0.03806638  0.03886814    -1.28800
O54         O  0.99966466  0.39014292  0.43773638    -0.84600
O55         O  0.00113975  0.10762577  0.43850419    -0.86100
O56         O  0.39036959  0.43702828  0.49988433    -0.84600
O57         O  0.10944090  0.43662823  0.50022772    -0.84700
O58         O  0.10966248  0.06079656  0.49965244    -0.84400
O59         O  0.39085564  0.06127351  0.50019803    -0.84200
O60         O  0.43718167  0.49831748  0.39143970    -0.84600
O61         O  0.06256222  0.49950307  0.39070450    -0.84000
O62         O  0.39066909  0.49843673  0.43797909    -0.85100
O63         O  0.10903936  0.49925054  0.43727466    -0.84300
O64         O  0.43688633  0.39050888  0.49941907    -0.84700
O65         O  0.43734785  0.10778850  0.49924634    -0.84400
O66         O  0.06310574  0.10725207  0.49945426    -0.84000
O67         O  0.06277592  0.39029491  0.50022785    -0.84400
O68         O  0.99951427  0.43644340  0.39096432    -0.84700
O69         O  0.00056005  0.06093429  0.39214837    -0.86100
Zr70       Zr  0.00023192  0.42164706  0.50006019     2.83100
Zr71       Zr  0.00047587  0.07619153  0.50095428     2.83500
Zr72       Zr  0.42224867  0.49915085  0.50036312     2.84100
Zr73       Zr  0.07758256  0.49874262  0.49979672     2.83400
Zr74       Zr  0.00008914  0.49888492  0.42237915     2.84200
O75         O  0.03890810  0.03738652  0.46221303    -1.06600
O76         O  0.46066305  0.46025614  0.46159734    -1.06100
C77         C  0.99939704  0.40135128  0.40253842     1.08500
C78         C  0.00107859  0.09609174  0.40338646     1.11100
C79         C  0.40174098  0.40188339  0.49957304     1.08700
C80         C  0.09797093  0.40152592  0.50038952     1.09100
C81         C  0.09825709  0.09591464  0.49905146     1.08600
C82         C  0.40221313  0.09642505  0.49960989     1.08200
C83         C  0.40207129  0.49820652  0.40281565     1.08600
C84         C  0.09774157  0.49956849  0.40207205     1.08100
H85         H  0.44501661  0.05354165  0.44525577     0.34800
O86         O  0.46087776  0.03763407  0.46127491    -1.27700
H87         H  0.05478310  0.44413047  0.44508361     0.34800
O88         O  0.03888993  0.46008663  0.46102061    -1.29100
N89         N  0.24966943  0.99360688  0.30840541    -0.34700
N90         N  0.19044505  0.99855287  0.24966338    -0.55200
N91         N  0.24988636  0.00281574  0.19072720    -0.33400
N92         N  0.30912411  0.99848287  0.24961241    -0.55200
C93         C  0.21843049  0.99728547  0.33111520     0.28900
C94         C  0.28095049  0.99661703  0.33111697     0.28900
C95         C  0.21869604  0.99715361  0.16839416     0.28900
C96         C  0.28118099  0.99792625  0.16834596     0.28900
C97         C  0.16730144  0.99768855  0.28064883     0.37500
C98         C  0.16747013  0.00022385  0.21862110     0.37500
C99         C  0.33216412  0.99699675  0.28065038     0.37500
C100        C  0.33220720  0.00098058  0.21867876     0.37500
C101        C  0.23009569  0.00158212  0.36882402    -0.20000
C102        C  0.26935484  0.00112986  0.36883180    -0.20000
C103        C  0.23037267  0.98933090  0.13124110    -0.20000
C104        C  0.26966705  0.98987396  0.13120004    -0.20000
C105        C  0.12934745  0.99877111  0.26917497    -0.21000
C106        C  0.12944933  0.00049658  0.22997400    -0.21000
C107        C  0.37015704  0.99844345  0.26930643    -0.21000
C108        C  0.37018248  0.00115601  0.23015750    -0.21000
C109        C  0.17961985  0.99720080  0.31922538    -0.16400
C110        C  0.31974467  0.99594985  0.31920231    -0.16400
C111        C  0.31990213  0.00060217  0.18011791    -0.16400
C112        C  0.17992145  0.99921567  0.18012783    -0.16400
H113        H  0.21220170  0.00522652  0.39383205     0.16500
H114        H  0.28730533  0.00440778  0.39384786     0.16500
H115        H  0.21244936  0.98342234  0.10668572     0.16500
H116        H  0.28770556  0.98441436  0.10662367     0.16500
H117        H  0.10414041  0.99846958  0.28714830     0.14800
H118        H  0.10431622  0.00127169  0.21191192     0.14800
H119        H  0.39531089  0.99787338  0.28734521     0.14800
H120        H  0.39536935  0.00245732  0.21219662     0.14800
H121        H  0.24966954  0.98699400  0.27953177     0.28100
H122        H  0.24979077  0.01270781  0.21871416     0.28100
N123        N  0.24992328  0.30730018  0.49951120    -0.34700
N124        N  0.19079288  0.24867908  0.50001533    -0.55200
N125        N  0.25002258  0.19027289  0.49716378    -0.34700
N126        N  0.30909805  0.24891709  0.49943462    -0.55200
C127        C  0.21871678  0.32889872  0.50727846     0.28900
C128        C  0.28116326  0.32906523  0.50665499     0.28900
C129        C  0.21879772  0.16865204  0.50475663     0.28900
C130        C  0.28121655  0.16879718  0.50529683     0.28900
C131        C  0.16842552  0.27979035  0.49490276     0.37500
C132        C  0.16858866  0.21780053  0.49307534     0.37500
C133        C  0.33149195  0.28000013  0.49423456     0.37500
C134        C  0.33149425  0.21796648  0.49355431     0.37500
C135        C  0.23028828  0.36490010  0.51932934    -0.20000
C136        C  0.26964250  0.36501823  0.51890061    -0.20000
C137        C  0.23027884  0.13293936  0.51769939    -0.20000
C138        C  0.26964548  0.13304943  0.51809517    -0.20000
C139        C  0.13162520  0.26861126  0.48517383    -0.21000
C140        C  0.13174644  0.22931443  0.48393749    -0.21000
C141        C  0.36848842  0.26873527  0.48537503    -0.21000
C142        C  0.36848583  0.22941821  0.48492767    -0.21000
C143        C  0.18022827  0.31795831  0.50105583    -0.16400
C144        C  0.31961244  0.31820787  0.50004933    -0.16400
C145        C  0.31968990  0.17969806  0.49896993    -0.16400
C146        C  0.18040818  0.17948376  0.49797998    -0.16400
H147        H  0.21224963  0.38884654  0.52706103     0.16500
H148        H  0.28770086  0.38906029  0.52628638     0.16500
H149        H  0.21218012  0.10911593  0.52567543     0.16500
H150        H  0.28769485  0.10931070  0.52641394     0.16500
H151        H  0.10717475  0.28683420  0.47983133     0.14800
H152        H  0.10738479  0.21129628  0.47757919     0.14800
H153        H  0.39304910  0.28690741  0.48036351     0.14800
H154        H  0.39304926  0.21135767  0.47954483     0.14800
H155        H  0.24985291  0.28103169  0.48573122     0.28100
H156        H  0.25004729  0.21629874  0.48285160     0.28100
C157        C  0.34859621  0.34800622  0.49997137    -0.11300
C158        C  0.37271895  0.37274398  0.49969758    -0.12900
C159        C  0.37314245  0.12551394  0.49925482    -0.11300
C160        C  0.34879351  0.15002806  0.49911246    -0.12900
C161        C  0.15117118  0.34768369  0.50110589    -0.11300
C162        C  0.12694414  0.37232234  0.50077595    -0.12900
C163        C  0.12724446  0.12505241  0.49802454    -0.11300
C164        C  0.15140206  0.14974142  0.49767952    -0.12900
C165        C  0.37317778  0.49799761  0.37361387    -0.11300
C166        C  0.34895180  0.99645003  0.34884532    -0.12900
C167        C  0.15034088  0.99830866  0.34884201    -0.11300
C168        C  0.12697606  0.49982864  0.37296439    -0.12900
C169        C  0.15067464  0.99859923  0.15062362    -0.11300
C170        C  0.12592870  0.99848727  0.12655507    -0.12900
C171        C  0.34923480  0.00069989  0.15062802    -0.11300
C172        C  0.37403019  0.00071404  0.12656829    -0.12900
C173        C  0.00101290  0.14892418  0.34928382    -0.11300
C174        C  0.00136488  0.12489575  0.37408952    -0.12900
C175        C  0.99902734  0.37207334  0.37370246    -0.11300
C176        C  0.99869458  0.34741562  0.34952182    -0.12900
C177        C  0.00132304  0.34800300  0.15144680    -0.11300
C178        C  0.00181735  0.37238540  0.12696300    -0.12900
C179        C  0.99911171  0.14990814  0.15100869    -0.11300
C180        C  0.99926535  0.12578460  0.12633502    -0.12900
N181        N  0.00022794  0.24886655  0.69213204    -0.34700
N182        N  0.00018414  0.18962997  0.75081515    -0.55200
N183        N  0.00239651  0.24897016  0.80952523    -0.34700
N184        N  0.99922509  0.30823342  0.75063748    -0.55200
C185        C  0.99417200  0.21757324  0.67005417     0.28900
C186        C  0.99513783  0.28011906  0.66977047     0.28900
C187        C  0.99568607  0.21770071  0.83138757     0.28900
C188        C  0.99525182  0.28011570  0.83142237     0.28900
C189        C  0.00373534  0.16686514  0.71978766     0.37500
C190        C  0.00519455  0.16707418  0.78176651     0.37500
C191        C  0.00323792  0.33099042  0.71959387     0.37500
C192        C  0.00318885  0.33096240  0.78168303     0.37500
C193        C  0.98535287  0.22915285  0.63311793    -0.20000
C194        C  0.98608898  0.26849561  0.63291206    -0.20000
C195        C  0.98476587  0.22914834  0.86780591    -0.20000
C196        C  0.98453544  0.26847264  0.86783977    -0.20000
C197        C  0.01073510  0.12945779  0.73111724    -0.21000
C198        C  0.01173723  0.12960289  0.77039251    -0.21000
C199        C  0.00897408  0.36856399  0.73102935    -0.21000
C200        C  0.00891142  0.36855180  0.77032109    -0.21000
C201        C  0.99864692  0.17891225  0.68151874    -0.16400
C202        C  0.00019367  0.31875098  0.68109926    -0.16400
C203        C  0.99968721  0.31872877  0.82008084    -0.16400
C204        C  0.00076925  0.17917646  0.82003596    -0.16400
H205        H  0.97958073  0.21112968  0.60860146     0.16500
H206        H  0.98086369  0.28647833  0.60824887     0.16500
H207        H  0.97778645  0.21105607  0.89195673     0.16500
H208        H  0.97730272  0.28644060  0.89200912     0.16500
H209        H  0.01424038  0.10456161  0.71302853     0.14800
H210        H  0.01601922  0.10482490  0.78847985     0.14800
H211        H  0.01254849  0.39346927  0.71297570     0.14800
H212        H  0.01240174  0.39344015  0.78842338     0.14800
H213        H  0.01127838  0.24888127  0.71955606     0.28100
H214        H  0.01515346  0.24908712  0.78276813     0.28100
O215        O  0.99908744  0.10781483  0.56320138    -0.84600
O216        O  0.00196591  0.38979589  0.56226190    -0.84700
O217        O  0.43742087  0.99793654  0.60927759    -0.86400
O218        O  0.06295817  0.99797685  0.61020576    -0.85200
O219        O  0.10897859  0.49859500  0.56241763    -0.84700
O220        O  0.39091322  0.49877898  0.56277849    -0.86100
O221        O  0.00168774  0.43632939  0.60876108    -0.84600
O222        O  0.99910101  0.06125541  0.60972817    -0.84200
Zr223      Zr  0.00023580  0.49884153  0.57728251     2.84300
O224        O  0.03895342  0.46021377  0.53867047    -1.06200
O225        O  0.46101088  0.03751308  0.53889588    -1.06900
C226        C  0.99862982  0.09640123  0.59833933     1.08500
C227        C  0.00220528  0.40114745  0.59743162     1.08500
C228        C  0.40230343  0.99849027  0.59794350     1.11500
C229        C  0.09809310  0.99779099  0.59870896     1.09300
H230        H  0.44522086  0.44429890  0.55474367     0.34800
O231        O  0.46106988  0.46029830  0.53880912    -1.27100
H232        H  0.05524685  0.05356751  0.55574939     0.34500
O233        O  0.03928738  0.03762346  0.53986225    -1.28800
O234        O  0.99970915  0.38982878  0.93841008    -0.84600
O235        O  0.99960069  0.10788965  0.93767811    -0.86100
O236        O  0.39091298  0.43772163  0.00029461    -0.84600
O237        O  0.10846940  0.43724562  0.00193042    -0.84700
O238        O  0.10863290  0.06192516  0.99925587    -0.84400
O239        O  0.39166186  0.06156546  0.00094747    -0.84200
O240        O  0.43746755  0.49845721  0.89212729    -0.84600
O241        O  0.06235629  0.49931119  0.89155491    -0.84000
O242        O  0.39090863  0.50009745  0.93857468    -0.85100
O243        O  0.10867600  0.49970194  0.93824319    -0.84300
O244        O  0.43721117  0.39099312  0.99974941    -0.84700
O245        O  0.43802815  0.10819648  0.00011340    -0.84400
O246        O  0.06206004  0.10833924  0.99861566    -0.84000
O247        O  0.06222242  0.39047287  0.00192082    -0.84400
O248        O  0.99979944  0.43622206  0.89174735    -0.84700
O249        O  0.99994732  0.06145742  0.89103229    -0.86100
Zr250      Zr  0.99973801  0.42168726  0.00050897     2.83100
Zr251      Zr  0.99984702  0.07645139  0.99988683     2.83500
Zr252      Zr  0.42307294  0.49972223  0.00039089     2.84100
Zr253      Zr  0.07677169  0.49933855  0.00033168     2.83400
Zr254      Zr  0.99987496  0.49872377  0.92292830     2.84200
O255        O  0.03853055  0.03787735  0.96111272    -1.06600
O256        O  0.46142894  0.46080007  0.96160528    -1.06100
C257        C  0.99970128  0.40112397  0.90324582     1.08500
C258        C  0.99974768  0.09653351  0.90255472     1.11100
C259        C  0.40212364  0.40252520  0.00000106     1.08700
C260        C  0.09728459  0.40207153  0.00240579     1.09100
C261        C  0.09724186  0.09710512  0.99874669     1.08600
C262        C  0.40288299  0.09678810  0.00073118     1.08200
C263        C  0.40233821  0.49925143  0.90347773     1.08600
C264        C  0.09745412  0.49966061  0.90305873     1.08100
H265        H  0.44573395  0.05350345  0.94528898     0.34800
O266        O  0.46177476  0.03772554  0.96125482    -1.27700
H267        H  0.05467543  0.44416609  0.94583492     0.34800
O268        O  0.03861252  0.46010876  0.96162018    -1.29100
N269        N  0.25044710  0.00083658  0.80955051    -0.34700
N270        N  0.19171038  0.99808813  0.75098773    -0.55200
N271        N  0.25078529  0.99983155  0.69239056    -0.33400
N272        N  0.30950649  0.00023950  0.75092206    -0.55200
C273        C  0.21934422  0.99211690  0.83089228     0.28900
C274        C  0.28172293  0.99267372  0.83082517     0.28900
C275        C  0.21967299  0.99094599  0.67112030     0.28900
C276        C  0.28210433  0.99160757  0.67115200     0.28900
C277        C  0.16960032  0.00524280  0.78190675     0.37500
C278        C  0.16976494  0.00488580  0.71988107     0.37500
C279        C  0.33142456  0.00725942  0.78196761     0.37500
C280        C  0.33171314  0.00660458  0.71991901     0.37500
C281        C  0.23095640  0.97840508  0.86628096    -0.20000
C282        C  0.27035273  0.97870067  0.86621925    -0.20000
C283        C  0.23135034  0.97701008  0.63583071    -0.20000
C284        C  0.27075258  0.97741708  0.63584589    -0.20000
C285        C  0.13331171  0.01633728  0.77043214    -0.21000
C286        C  0.13343288  0.01615838  0.73109435    -0.21000
C287        C  0.36786111  0.01814877  0.77066748    -0.21000
C288        C  0.36806462  0.01767781  0.73130109    -0.21000
C289        C  0.18100305  0.99903723  0.82014504    -0.16400
C290        C  0.31998942  0.00018275  0.82007319    -0.16400
C291        C  0.32037767  0.99925999  0.68182113    -0.16400
C292        C  0.18125179  0.99797436  0.68174392    -0.16400
H293        H  0.21293143  0.96958552  0.88987014     0.16500
H294        H  0.28853815  0.97015715  0.88978158     0.16500
H295        H  0.21335360  0.96803258  0.61228622     0.16500
H296        H  0.28894368  0.96879871  0.61230809     0.16500
H297        H  0.10916851  0.02337593  0.78849641     0.14800
H298        H  0.10938621  0.02302790  0.71284946     0.14800
H299        H  0.39199172  0.02485917  0.78887379     0.14800
H300        H  0.39236941  0.02399370  0.71318614     0.14800
H301        H  0.25029398  0.01589703  0.78391221     0.28100
H302        H  0.25055577  0.01506482  0.71792222     0.28100
N303        N  0.25003444  0.30891975  0.00476892    -0.34700
N304        N  0.19087848  0.25009747  0.00229741    -0.55200
N305        N  0.24987605  0.19082843  0.00321933    -0.34700
N306        N  0.30904165  0.24961945  0.00243012    -0.55200
C307        C  0.21882074  0.33090997  0.99836770     0.28900
C308        C  0.28120903  0.33067695  0.99749854     0.28900
C309        C  0.21855596  0.16884756  0.99703896     0.28900
C310        C  0.28111368  0.16849544  0.99789934     0.28900
C311        C  0.16833690  0.28111544  0.00749463     0.37500
C312        C  0.16806430  0.21903105  0.00583117     0.37500
C313        C  0.33183172  0.28070718  0.00595781     0.37500
C314        C  0.33186973  0.21853665  0.00591045     0.37500
C315        C  0.23031001  0.36731867  0.98748254    -0.20000
C316        C  0.26963512  0.36716341  0.98689435    -0.20000
C317        C  0.23007807  0.13187801  0.98826215    -0.20000
C318        C  0.26943059  0.13163713  0.98888614    -0.20000
C319        C  0.13091609  0.26970990  0.01399085    -0.21000
C320        C  0.13073009  0.23045412  0.01285236    -0.21000
C321        C  0.36943966  0.26930074  0.01127726    -0.21000
C322        C  0.36947025  0.23001324  0.01121965    -0.21000
C323        C  0.18034456  0.31955284  0.00365733    -0.16400
C324        C  0.31977574  0.31916136  0.00183131    -0.16400
C325        C  0.31980578  0.17999800  0.00220722    -0.16400
C326        C  0.17990577  0.18058212  0.00095301    -0.16400
H327        H  0.21225873  0.39155051  0.98071982     0.16500
H328        H  0.28763933  0.39127958  0.97960476     0.16500
H329        H  0.21202297  0.10742810  0.98234536     0.16500
H330        H  0.28736885  0.10699693  0.98343572     0.16500
H331        H  0.10618197  0.28778228  0.01847567     0.14800
H332        H  0.10584170  0.21240772  0.01646556     0.14800
H333        H  0.39439304  0.28738160  0.01424399     0.14800
H334        H  0.39445747  0.21198524  0.01418907     0.14800
H335        H  0.25009906  0.28210540  0.01739347     0.28100
H336        H  0.24987371  0.21832099  0.01409574     0.28100
C337        C  0.34890081  0.34878571  0.00088934    -0.11300
C338        C  0.37300993  0.37350896  0.00030142    -0.12900
C339        C  0.37364155  0.12589080  0.00120598    -0.11300
C340        C  0.34914451  0.15036162  0.00166283    -0.12900
C341        C  0.15115307  0.34908332  0.00362011    -0.11300
C342        C  0.12654967  0.37328642  0.00329520    -0.12900
C343        C  0.12624417  0.12641792  0.99881082    -0.11300
C344        C  0.15047491  0.15111859  0.99957653    -0.12900
C345        C  0.37343045  0.49950781  0.87435581    -0.11300
C346        C  0.34923631  0.99924577  0.84953165    -0.12900
C347        C  0.15183121  0.99933486  0.84974265    -0.11300
C348        C  0.12667249  0.49988520  0.87414979    -0.12900
C349        C  0.15201594  0.99749380  0.65209984    -0.11300
C350        C  0.12742470  0.99747209  0.62773010    -0.12900
C351        C  0.34948983  0.99870255  0.65216255    -0.11300
C352        C  0.37342044  0.99843992  0.62722867    -0.12900
C353        C  0.99995704  0.15004286  0.84945087    -0.11300
C354        C  0.99964595  0.12558824  0.87370898    -0.12900
C355        C  0.99965732  0.37203053  0.87428574    -0.11300
C356        C  0.99958364  0.34774625  0.84976405    -0.12900
C357        C  0.00154999  0.34777634  0.65125444    -0.11300
C358        C  0.00240446  0.37203486  0.62659507    -0.12900
C359        C  0.99783303  0.14970062  0.65198440    -0.11300
C360        C  0.99783136  0.12541806  0.62742726    -0.12900
N361        N  0.99644440  0.74928748  0.19162469    -0.34700
N362        N  0.99963773  0.69014246  0.25040105    -0.55200
N363        N  0.99592162  0.74903868  0.30976430    -0.34700
N364        N  0.99801366  0.80819270  0.25104433    -0.55200
C365        C  0.00346246  0.71810527  0.16966019     0.28900
C366        C  0.00388594  0.78059847  0.16999126     0.28900
C367        C  0.00293547  0.71787792  0.33162851     0.28900
C368        C  0.00129241  0.78023831  0.33205771     0.28900
C369        C  0.99544555  0.66736776  0.21937562     0.37500
C370        C  0.99551999  0.66736482  0.28141813     0.37500
C371        C  0.99507829  0.83114665  0.21998961     0.37500
C372        C  0.99329055  0.83085260  0.28210350     0.37500
C373        C  0.01465012  0.72975745  0.13341671    -0.20000
C374        C  0.01499435  0.76909946  0.13364631    -0.20000
C375        C  0.01233161  0.72941223  0.36846089    -0.20000
C376        C  0.01122257  0.76872641  0.36875220    -0.20000
C377        C  0.98938867  0.62985701  0.23076278    -0.21000
C378        C  0.98938485  0.62986435  0.27001128    -0.21000
C379        C  0.98912555  0.86865515  0.23144673    -0.21000
C380        C  0.98789653  0.86845799  0.27070451    -0.21000
C381        C  0.99899630  0.67944914  0.18093506    -0.16400
C382        C  0.99969212  0.81925789  0.18152140    -0.16400
C383        C  0.99624723  0.81872716  0.32062579    -0.16400
C384        C  0.99919282  0.67934110  0.31988128    -0.16400
H385        H  0.02210129  0.71177909  0.10932163     0.16500
H386        H  0.02272236  0.78718181  0.10972291     0.16500
H387        H  0.01909211  0.71138598  0.39272547     0.16500
H388        H  0.01706804  0.78675222  0.39325658     0.16500
H389        H  0.98559315  0.60499454  0.21269569     0.14800
H390        H  0.98553933  0.60500979  0.28807919     0.14800
H391        H  0.98630525  0.89367006  0.21342053     0.14800
H392        H  0.98403373  0.89330070  0.28878914     0.14800
H393        H  0.98365892  0.74919825  0.21837644     0.28100
H394        H  0.98424653  0.74889599  0.28253947     0.28100
O395        O  0.99869856  0.60797927  0.06250148    -0.84600
O396        O  0.00050207  0.89064461  0.06270294    -0.84700
O397        O  0.43811217  0.50103020  0.10907478    -0.86400
O398        O  0.06230805  0.49826754  0.10901094    -0.85200
O399        O  0.10814776  0.99890165  0.06251521    -0.84700
O400        O  0.39191586  0.00033550  0.06253602    -0.86100
O401        O  0.00086372  0.93717325  0.10922746    -0.84600
O402        O  0.99976961  0.56151715  0.10909502    -0.84200
Zr403      Zr  0.99942095  0.99930372  0.07731153     2.84300
O404        O  0.03808961  0.96077019  0.03848167    -1.06200
O405        O  0.46208144  0.53796920  0.03886270    -1.06900
C406        C  0.99917021  0.59666291  0.09768711     1.08500
C407        C  0.00100404  0.90199983  0.09792422     1.08500
C408        C  0.40303612  0.50166520  0.09763279     1.11500
C409        C  0.09742900  0.49821870  0.09750573     1.09300
H410        H  0.44623584  0.94503239  0.05557088     0.34800
O411        O  0.46212521  0.96077948  0.03943206    -1.27100
H412        H  0.05401626  0.55397821  0.05495506     0.34500
O413        O  0.03812652  0.53803147  0.03900581    -1.28800
O414        O  0.99780660  0.88980657  0.43898605    -0.84600
O415        O  0.00097519  0.60790438  0.43761462    -0.86100
O416        O  0.39097830  0.93646498  0.49972937    -0.84600
O417        O  0.10913518  0.93658724  0.50012431    -0.84700
O418        O  0.10907782  0.56094232  0.49878665    -0.84400
O419        O  0.39099209  0.56167657  0.50091818    -0.84200
O420        O  0.43732087  0.99867596  0.39136229    -0.84600
O421        O  0.06192129  0.99923096  0.39154578    -0.84000
O422        O  0.39072999  0.99807766  0.43782434    -0.85100
O423        O  0.10858573  0.99951142  0.43791691    -0.84300
O424        O  0.43761209  0.89008930  0.49948356    -0.84700
O425        O  0.43752820  0.60813402  0.50027209    -0.84400
O426        O  0.06259459  0.60747606  0.49841094    -0.84000
O427        O  0.06240053  0.89027594  0.50021202    -0.84400
O428        O  0.99840483  0.93628942  0.39245058    -0.84700
O429        O  0.00005529  0.56138546  0.39107067    -0.86100
Zr430      Zr  0.99995849  0.92160122  0.50101185     2.83100
Zr431      Zr  0.00028631  0.57622508  0.49971128     2.83500
Zr432      Zr  0.42234054  0.99886977  0.50018249     2.84100
Zr433      Zr  0.07766542  0.99877982  0.50082690     2.83400
Zr434      Zr  0.99996169  0.99876007  0.42372883     2.84200
O435        O  0.03889669  0.53740414  0.46108025    -1.06600
O436        O  0.46103972  0.96016798  0.46139065    -1.06100
C437        C  0.99750303  0.90116895  0.40385740     1.08500
C438        C  0.00054780  0.59651764  0.40249785     1.11100
C439        C  0.40244081  0.90135741  0.49937914     1.08700
C440        C  0.09757184  0.90153211  0.49996641     1.09100
C441        C  0.09767783  0.59604765  0.49834311     1.08600
C442        C  0.40239719  0.59680916  0.50063484     1.08200
C443        C  0.40215821  0.99809496  0.40267315     1.08600
C444        C  0.09710212  0.99945198  0.40275674     1.08100
H445        H  0.44488115  0.55363549  0.44525285     0.34800
O446        O  0.46071836  0.53766915  0.46123826    -1.27700
H447        H  0.05455627  0.94403100  0.44604311     0.34800
O448        O  0.03883799  0.95999501  0.46214801    -1.29100
N449        N  0.25055036  0.49602055  0.30819687    -0.34700
N450        N  0.19149267  0.49913465  0.24940176    -0.55200
N451        N  0.25066139  0.49739994  0.19061759    -0.33400
N452        N  0.30983938  0.49851688  0.24959510    -0.55200
C453        C  0.21938849  0.50382384  0.32991693     0.28900
C454        C  0.28182019  0.50323304  0.32992159     0.28900
C455        C  0.21940937  0.50403502  0.16868229     0.28900
C456        C  0.28185834  0.50497596  0.16892972     0.28900
C457        C  0.16877835  0.49464693  0.28041542     0.37500
C458        C  0.16887309  0.49447052  0.21835818     0.37500
C459        C  0.33256061  0.49387886  0.28052269     0.37500
C460        C  0.33262934  0.49546042  0.21853671     0.37500
C461        C  0.23104674  0.51561550  0.36596235    -0.20000
C462        C  0.27035690  0.51527883  0.36595758    -0.20000
C463        C  0.23091714  0.51536107  0.13241409    -0.20000
C464        C  0.27025313  0.51602660  0.13258566    -0.20000
C465        C  0.13143496  0.48774691  0.26901387    -0.21000
C466        C  0.13149824  0.48758387  0.22973869    -0.21000
C467        C  0.37013932  0.48823387  0.26908468    -0.21000
C468        C  0.37020251  0.48932245  0.22980538    -0.21000
C469        C  0.18073484  0.49903658  0.31880110    -0.16400
C470        C  0.32038005  0.49778449  0.31885703    -0.16400
C471        C  0.32048357  0.50055845  0.18031997    -0.16400
C472        C  0.18086288  0.49868140  0.17994872    -0.16400
H473        H  0.21308260  0.52366774  0.38986061     0.16500
H474        H  0.28845352  0.52306780  0.38984595     0.16500
H475        H  0.21285426  0.52245442  0.10828177     0.16500
H476        H  0.28825533  0.52368476  0.10857391     0.16500
H477        H  0.10663786  0.48361863  0.28708666     0.14800
H478        H  0.10673630  0.48331807  0.21165015     0.14800
H479        H  0.39502852  0.48454240  0.28713344     0.14800
H480        H  0.39515260  0.48650874  0.21167556     0.14800
H481        H  0.25046371  0.48261653  0.28169656     0.28100
H482        H  0.25072326  0.48464310  0.21738946     0.28100
N483        N  0.24966857  0.80761470  0.49749306    -0.34700
N484        N  0.19016734  0.74878742  0.49978698    -0.55200
N485        N  0.24962689  0.69007479  0.49731564    -0.34700
N486        N  0.30907308  0.74900590  0.49871934    -0.55200
C487        C  0.21844846  0.82991972  0.50280971     0.28900
C488        C  0.28098651  0.82996571  0.50223756     0.28900
C489        C  0.21842526  0.66773732  0.50256953     0.28900
C490        C  0.28094381  0.66792871  0.50278947     0.28900
C491        C  0.16727337  0.77982063  0.49727052     0.37500
C492        C  0.16725946  0.71777629  0.49708835     0.37500
C493        C  0.33162876  0.77999277  0.49366810     0.37500
C494        C  0.33162344  0.71795294  0.49419202     0.37500
C495        C  0.23012054  0.86707864  0.51047794    -0.20000
C496        C  0.26944658  0.86709301  0.51017560    -0.20000
C497        C  0.23010254  0.63069018  0.51074291    -0.20000
C498        C  0.26942733  0.63083995  0.51101003    -0.20000
C499        C  0.12939372  0.76844308  0.49378626    -0.21000
C500        C  0.12938237  0.72917516  0.49368871    -0.21000
C501        C  0.36889026  0.76855873  0.48622533    -0.21000
C502        C  0.36889709  0.72928101  0.48660442    -0.21000
C503        C  0.17972929  0.81826014  0.49952769    -0.16400
C504        C  0.31961348  0.81839836  0.49774785    -0.16400
C505        C  0.31957982  0.67959934  0.49869690    -0.16400
C506        C  0.17972691  0.67933560  0.49910636    -0.16400
H507        H  0.21217600  0.89179074  0.51555599     0.16500
H508        H  0.28746283  0.89183163  0.51485433     0.16500
H509        H  0.21216813  0.60600130  0.51598115     0.16500
H510        H  0.28746605  0.60624761  0.51631726     0.16500
H511        H  0.10432622  0.78650678  0.49177852     0.14800
H512        H  0.10430582  0.71112924  0.49161001     0.14800
H513        H  0.39356510  0.78660529  0.48131058     0.14800
H514        H  0.39357926  0.71116406  0.48200778     0.14800
H515        H  0.24953630  0.77989851  0.48733032     0.28100
H516        H  0.24954903  0.71766792  0.48677196     0.28100
C517        C  0.34894647  0.84786147  0.49824036    -0.11300
C518        C  0.37342193  0.87223593  0.49881779    -0.12900
C519        C  0.37337417  0.62587515  0.50036749    -0.11300
C520        C  0.34891108  0.65021987  0.49969782    -0.12900
C521        C  0.15068371  0.84788073  0.49941068    -0.11300
C522        C  0.12644723  0.87241310  0.49946616    -0.12900
C523        C  0.12662269  0.62506117  0.49820065    -0.11300
C524        C  0.15076250  0.64966726  0.49861968    -0.12900
C525        C  0.37317594  0.99724701  0.37348548    -0.11300
C526        C  0.34928662  0.49792350  0.34868554    -0.12900
C527        C  0.15148948  0.49970627  0.34850673    -0.11300
C528        C  0.12605940  0.99912667  0.37346545    -0.12900
C529        C  0.15159012  0.49855587  0.15039383    -0.11300
C530        C  0.12676890  0.49822988  0.12634221    -0.12900
C531        C  0.34962105  0.50202964  0.15088352    -0.11300
C532        C  0.37403013  0.50239052  0.12655435    -0.12900
C533        C  0.99982960  0.65006651  0.34926303    -0.11300
C534        C  0.00027472  0.62558976  0.37355906    -0.12900
C535        C  0.99628260  0.87211773  0.37483490    -0.11300
C536        C  0.99589087  0.84782213  0.35029628    -0.12900
C537        C  0.00095718  0.84863480  0.15192179    -0.11300
C538        C  0.00135789  0.87291638  0.12721477    -0.12900
C539        C  0.99925472  0.65024995  0.15124850    -0.11300
C540        C  0.99921213  0.62581501  0.12676723    -0.12900
N541        N  0.99610707  0.74801777  0.69126188    -0.34700
N542        N  0.00195077  0.68875925  0.74978868    -0.55200
N543        N  0.00744630  0.74823752  0.80843044    -0.34700
N544        N  0.00131663  0.80737906  0.74989603    -0.55200
C545        C  0.00136326  0.71687253  0.66876331     0.28900
C546        C  0.00089501  0.77923604  0.66875672     0.28900
C547        C  0.00260135  0.71695392  0.83090314     0.28900
C548        C  0.00249652  0.77945202  0.83102688     0.28900
C549        C  0.99993546  0.66567307  0.71887130     0.37500
C550        C  0.00345715  0.66566475  0.78071280     0.37500
C551        C  0.99832156  0.83033757  0.71894640     0.37500
C552        C  0.00223502  0.83059307  0.78079829     0.37500
C553        C  0.00847161  0.72849311  0.63147450    -0.20000
C554        C  0.00815489  0.76771234  0.63146740    -0.20000
C555        C  0.99560057  0.72850804  0.86822596    -0.20000
C556        C  0.99559308  0.76775885  0.86830830    -0.20000
C557        C  0.00010125  0.62764093  0.73020867    -0.21000
C558        C  0.00239703  0.62762956  0.76936135    -0.21000
C559        C  0.99715679  0.86834622  0.73026463    -0.21000
C560        C  0.99978066  0.86851635  0.76937765    -0.21000
C561        C  0.99999906  0.67815480  0.68047089    -0.16400
C562        C  0.99900343  0.81793602  0.68050731    -0.16400
C563        C  0.00310049  0.81829532  0.81929544    -0.16400
C564        C  0.00385089  0.67815801  0.81913188    -0.16400
H565        H  0.01398333  0.71058117  0.60681385     0.16500
H566        H  0.01334158  0.78569625  0.60679419     0.16500
H567        H  0.99017422  0.71051815  0.89284408     0.16500
H568        H  0.99011385  0.78565435  0.89298168     0.16500
H569        H  0.99905585  0.60248546  0.71216827     0.14800
H570        H  0.00285104  0.60245144  0.78738865     0.14800
H571        H  0.99502334  0.89342488  0.71222356     0.14800
H572        H  0.99942346  0.89373288  0.78734772     0.14800
H573        H  0.98694399  0.74796405  0.71948844     0.28100
H574        H  0.01623054  0.74824931  0.78009122     0.28100
O575        O  0.00092928  0.60766007  0.56200902    -0.84600
O576        O  0.00101472  0.88960851  0.56287361    -0.84700
O577        O  0.43759790  0.49799747  0.60914748    -0.86400
O578        O  0.06245635  0.49824147  0.60895002    -0.85200
O579        O  0.10925199  0.99804370  0.56343825    -0.84700
O580        O  0.39089601  0.99913029  0.56276533    -0.86100
O581        O  0.00075931  0.93599917  0.60954230    -0.84600
O582        O  0.00030997  0.56115186  0.60858665    -0.84200
Zr583      Zr  0.00050282  0.99871230  0.57852617     2.84300
O584        O  0.03902303  0.96005824  0.53962562    -1.06200
O585        O  0.46078980  0.53786317  0.53930130    -1.06900
C586        C  0.00067704  0.59623961  0.59713273     1.08500
C587        C  0.00100077  0.90088942  0.59801243     1.08500
C588        C  0.40242459  0.49821746  0.59787625     1.11500
C589        C  0.09759457  0.49837072  0.59760525     1.09300
H590        H  0.44509711  0.94408698  0.55482763     0.34800
O591        O  0.46095892  0.96016546  0.53898075    -1.27100
H592        H  0.05504444  0.55348998  0.55442296     0.34500
O593        O  0.03903038  0.53758023  0.53855953    -1.28800
O594        O  0.99965576  0.89079425  0.93699416    -0.84600
O595        O  0.00096373  0.60721305  0.93733530    -0.86100
O596        O  0.39186547  0.93666694  0.00116739    -0.84600
O597        O  0.10839145  0.93672758  0.00137655    -0.84700
O598        O  0.10778060  0.56191650  0.00067726    -0.84400
O599        O  0.39200470  0.56227354  0.00208660    -0.84200
O600        O  0.43800427  0.99816726  0.89132098    -0.84600
O601        O  0.06284934  0.00070926  0.89150012    -0.84000
O602        O  0.39170756  0.99817660  0.93805448    -0.85100
O603        O  0.10924420  0.99918486  0.93812548    -0.84300
O604        O  0.43837535  0.89016391  0.00193430    -0.84700
O605        O  0.43849096  0.60877960  0.00173941    -0.84400
O606        O  0.06127347  0.60842725  0.00022786    -0.84000
O607        O  0.06193280  0.89015657  0.00109176    -0.84400
O608        O  0.00016858  0.93704384  0.89018783    -0.84700
O609        O  0.00123036  0.56059662  0.89087296    -0.86100
Zr610      Zr  0.99965657  0.92182360  0.99984702     2.83100
Zr611      Zr  0.99923518  0.57641033  0.00010668     2.83500
Zr612      Zr  0.42340378  0.99914811  0.00035858     2.84100
Zr613      Zr  0.07708303  0.99931221  0.00002257     2.83400
Zr614      Zr  0.99991161  0.99912162  0.92235036     2.84200
O615        O  0.03814858  0.53782301  0.96152789    -1.06600
O616        O  0.46192015  0.95998176  0.96192098    -1.06100
C617        C  0.00001627  0.90193537  0.90173485     1.08500
C618        C  0.00160699  0.59572386  0.90221311     1.11100
C619        C  0.40320196  0.90148301  0.00167867     1.08700
C620        C  0.09707278  0.90154138  0.00159893     1.09100
C621        C  0.09640589  0.59704817  0.00051060     1.08600
C622        C  0.40335320  0.59741097  0.00229849     1.08200
C623        C  0.40291276  0.99811996  0.90284202     1.08600
C624        C  0.09799366  0.00005792  0.90296513     1.08100
H625        H  0.44559114  0.55438642  0.94548086     0.34800
O626        O  0.46152130  0.53837332  0.96132302    -1.27700
H627        H  0.05466616  0.94445697  0.94524474     0.34800
O628        O  0.03864629  0.96038059  0.96109468    -1.29100
N629        N  0.25027142  0.50321017  0.80966804    -0.34700
N630        N  0.19082944  0.49932254  0.75066728    -0.55200
N631        N  0.24999440  0.50153532  0.69160721    -0.33400
N632        N  0.30944825  0.50028230  0.75060433    -0.55200
C633        C  0.21908480  0.49719189  0.83187145     0.28900
C634        C  0.28154656  0.49743837  0.83180604     0.28900
C635        C  0.21871404  0.49674431  0.66924805     0.28900
C636        C  0.28123108  0.49674560  0.66920206     0.28900
C637        C  0.16807921  0.50293175  0.78175316     0.37500
C638        C  0.16791581  0.50260443  0.71964063     0.37500
C639        C  0.33247530  0.50286931  0.78157214     0.37500
C640        C  0.33234847  0.50206857  0.71948208     0.37500
C641        C  0.23073256  0.48842325  0.86880168    -0.20000
C642        C  0.27003102  0.48855707  0.86875872    -0.20000
C643        C  0.23027631  0.48958453  0.63193917    -0.20000
C644        C  0.26958803  0.48962012  0.63190145    -0.20000
C645        C  0.13037164  0.50777363  0.77040600    -0.21000
C646        C  0.13027848  0.50762975  0.73113513    -0.21000
C647        C  0.37034230  0.50573031  0.77006323    -0.21000
C648        C  0.37026424  0.50521104  0.73079927    -0.21000
C649        C  0.18038716  0.50038914  0.82024158    -0.16400
C650        C  0.32020828  0.50061341  0.82008028    -0.16400
C651        C  0.31995674  0.49936799  0.68100721    -0.16400
C652        C  0.18003569  0.49977239  0.68107611    -0.16400
H653        H  0.21278987  0.48230214  0.89328817     0.16500
H654        H  0.28805859  0.48249768  0.89319905     0.16500
H655        H  0.21228445  0.48482496  0.60718848     0.16500
H656        H  0.28753016  0.48485378  0.60711411     0.16500
H657        H  0.10546255  0.51101584  0.78851139     0.14800
H658        H  0.10529459  0.51079578  0.71312630     0.14800
H659        H  0.39548401  0.50751128  0.78804868     0.14800
H660        H  0.39534292  0.50661276  0.71269035     0.14800
H661        H  0.25016916  0.51420763  0.78219666     0.28100
H662        H  0.25002565  0.51070385  0.71967523     0.28100
N663        N  0.25007136  0.80804248  0.99818376    -0.34700
N664        N  0.19081294  0.74888559  0.00003634    -0.55200
N665        N  0.24970439  0.68953189  0.99701636    -0.34700
N666        N  0.30895480  0.74887260  0.99894105    -0.55200
C667        C  0.21887222  0.83027697  0.00385078     0.28900
C668        C  0.28143341  0.83017495  0.00350715     0.28900
C669        C  0.21847608  0.66740292  0.00290398     0.28900
C670        C  0.28098622  0.66743719  0.00273428     0.28900
C671        C  0.16797828  0.78002962  0.99728342     0.37500
C672        C  0.16786638  0.71788845  0.99667141     0.37500
C673        C  0.33174600  0.77988923  0.99469849     0.37500
C674        C  0.33142564  0.71774627  0.99409943     0.37500
C675        C  0.23059582  0.86732739  0.01202137    -0.20000
C676        C  0.26995191  0.86724764  0.01187742    -0.20000
C677        C  0.23007662  0.63039259  0.01148953    -0.20000
C678        C  0.26944974  0.63042601  0.01143465    -0.20000
C679        C  0.13025119  0.76868554  0.99265174    -0.21000
C680        C  0.13018197  0.72944279  0.99223360    -0.21000
C681        C  0.36895322  0.76835622  0.98728392    -0.21000
C682        C  0.36873621  0.72908604  0.98681844    -0.21000
C683        C  0.18013906  0.81855672  0.00070965    -0.16400
C684        C  0.32006008  0.81840390  0.99947030    -0.16400
C685        C  0.31958806  0.67930483  0.99892007    -0.16400
C686        C  0.17984893  0.67930242  0.99967612    -0.16400
H687        H  0.21267617  0.89197585  0.01747801     0.16500
H688        H  0.28802089  0.89183667  0.01711697     0.16500
H689        H  0.21207727  0.60586289  0.01726792     0.16500
H690        H  0.28748998  0.60589264  0.01704642     0.16500
H691        H  0.10525341  0.78677527  0.99020613     0.14800
H692        H  0.10511708  0.71148838  0.98944514     0.14800
H693        H  0.39378632  0.78633884  0.98301871     0.14800
H694        H  0.39339302  0.71095217  0.98217527     0.14800
H695        H  0.24990246  0.78034443  0.98779999     0.28100
H696        H  0.24967069  0.71709940  0.98626363     0.28100
C697        C  0.34963271  0.84777380  0.00085204    -0.11300
C698        C  0.37407428  0.87228579  0.00165558    -0.12900
C699        C  0.37414009  0.62634392  0.00238909    -0.11300
C700        C  0.34922186  0.65023465  0.00110530    -0.12900
C701        C  0.15077492  0.84807458  0.00178251    -0.11300
C702        C  0.12623350  0.87245108  0.00208276    -0.12900
C703        C  0.12556678  0.62598988  0.00067541    -0.11300
C704        C  0.15036687  0.65001939  0.00046167    -0.12900
C705        C  0.37370295  0.99846930  0.87390198    -0.11300
C706        C  0.34933284  0.49996413  0.84966510    -0.12900
C707        C  0.15120019  0.50004571  0.84983258    -0.11300
C708        C  0.12724468  0.99985533  0.87402796    -0.12900
C709        C  0.15075940  0.49916073  0.65151293    -0.11300
C710        C  0.12658020  0.49863792  0.62681517    -0.12900
C711        C  0.34913927  0.49835356  0.65147261    -0.11300
C712        C  0.37347680  0.49796941  0.62700032    -0.12900
C713        C  0.00328595  0.64901021  0.84869918    -0.11300
C714        C  0.00265436  0.62466269  0.87313672    -0.12900
C715        C  0.00075485  0.87252890  0.87287374    -0.11300
C716        C  0.00181453  0.84767461  0.84882430    -0.12900
C717        C  0.00004656  0.84712806  0.65102474    -0.11300
C718        C  0.00080966  0.87169871  0.62683171    -0.12900
C719        C  0.00060371  0.64917947  0.65083899    -0.11300
C720        C  0.00081301  0.62514335  0.62615120    -0.12900
N721        N  0.50069130  0.24891327  0.19159872    -0.34700
N722        N  0.50227450  0.19017802  0.25064828    -0.55200
N723        N  0.50616181  0.24912923  0.30938281    -0.34700
N724        N  0.50184296  0.30791060  0.25007285    -0.55200
C725        C  0.49320144  0.21767089  0.17002002     0.28900
C726        C  0.49425781  0.28011347  0.16961569     0.28900
C727        C  0.49864440  0.21788237  0.33098574     0.28900
C728        C  0.49724120  0.28025813  0.33060656     0.28900
C729        C  0.50591846  0.16755944  0.21944787     0.37500
C730        C  0.50957184  0.16790013  0.28143506     0.37500
C731        C  0.50697064  0.33027157  0.21890308     0.37500
C732        C  0.50808690  0.33031401  0.28098305     0.37500
C733        C  0.48200622  0.22917129  0.13367567    -0.20000
C734        C  0.48277317  0.26854626  0.13339101    -0.20000
C735        C  0.48538681  0.22928822  0.36663080    -0.20000
C736        C  0.48443887  0.26865447  0.36637347    -0.20000
C737        C  0.51521281  0.13062625  0.23054234    -0.21000
C738        C  0.51771813  0.13088690  0.26976911    -0.21000
C739        C  0.51629004  0.36717695  0.23011493    -0.21000
C740        C  0.51700780  0.36719875  0.26943409    -0.21000
C741        C  0.49912539  0.17922412  0.18126053    -0.16400
C742        C  0.50087192  0.31852019  0.18064007    -0.16400
C743        C  0.50238846  0.31876333  0.31930483    -0.16400
C744        C  0.50489422  0.17949320  0.31987456    -0.16400
H745        H  0.47477928  0.21108520  0.10958871     0.16500
H746        H  0.47619446  0.28655590  0.10906787     0.16500
H747        H  0.47717993  0.21114609  0.39035392     0.16500
H748        H  0.47545642  0.28667024  0.38991276     0.16500
H749        H  0.51932153  0.10593421  0.21231546     0.14800
H750        H  0.52389605  0.10640362  0.28769352     0.14800
H751        H  0.52146563  0.39167861  0.21189761     0.14800
H752        H  0.52279270  0.39171265  0.28745444     0.14800
H753        H  0.51383801  0.24889108  0.21817439     0.28100
H754        H  0.52039966  0.24927790  0.28327004     0.28100
O755        O  0.50000047  0.10842424  0.06222765    -0.84600
O756        O  0.50071675  0.38970337  0.06214505    -0.84700
O757        O  0.93700672  0.99923597  0.10902777    -0.86400
O758        O  0.56358602  0.99866245  0.10888341    -0.85200
O759        O  0.60878336  0.49923797  0.06293000    -0.84700
O760        O  0.89102823  0.50010770  0.06270675    -0.86100
O761        O  0.50058816  0.43623884  0.10868086    -0.84600
O762        O  0.50078653  0.06208779  0.10895017    -0.84200
Zr763      Zr  0.50032973  0.49904867  0.07765730     2.84300
O764        O  0.53893735  0.46013863  0.03903888    -1.06200
O765        O  0.96081002  0.03804227  0.03859623    -1.06900
C766        C  0.50015336  0.09716953  0.09746367     1.08500
C767        C  0.50078876  0.40106083  0.09730439     1.08500
C768        C  0.90181796  0.99922160  0.09773367     1.11500
C769        C  0.59878223  0.99864523  0.09769575     1.09300
H770        H  0.94484905  0.44425948  0.05521307     0.34800
O771        O  0.96075453  0.46017041  0.03924038    -1.27100
H772        H  0.55542939  0.05439093  0.05465657     0.34500
O773        O  0.53950454  0.03839784  0.03878626    -1.28800
O774        O  0.49924761  0.39018969  0.43732933    -0.84600
O775        O  0.50134048  0.10753075  0.43758930    -0.86100
O776        O  0.89159181  0.43680698  0.50012166    -0.84600
O777        O  0.60864150  0.43666360  0.50170767    -0.84700
O778        O  0.60858618  0.06141107  0.50102912    -0.84400
O779        O  0.89149226  0.06159360  0.50156512    -0.84200
O780        O  0.93720743  0.49731698  0.39161545    -0.84600
O781        O  0.56167214  0.49758630  0.39094189    -0.84000
O782        O  0.89078022  0.49683974  0.43822988    -0.85100
O783        O  0.60817043  0.49834415  0.43744917    -0.84300
O784        O  0.93787201  0.39006188  0.49973683    -0.84700
O785        O  0.93813808  0.10795156  0.50069004    -0.84400
O786        O  0.56200106  0.10780341  0.49985005    -0.84000
O787        O  0.56205176  0.39024596  0.50180906    -0.84400
O788        O  0.49804782  0.43663652  0.39077501    -0.84700
O789        O  0.50042794  0.06113490  0.39096392    -0.86100
Zr790      Zr  0.49952708  0.42155037  0.49988348     2.83100
Zr791      Zr  0.49962634  0.07620397  0.50003646     2.83500
Zr792      Zr  0.92292170  0.49935615  0.49999309     2.84100
Zr793      Zr  0.57682074  0.49878837  0.49978984     2.83400
Zr794      Zr  0.49947875  0.49856543  0.42280594     2.84200
O795        O  0.53835667  0.03758458  0.46158269    -1.06600
O796        O  0.96160648  0.46051351  0.46148225    -1.06100
C797        C  0.49855430  0.40152736  0.40215482     1.08500
C798        C  0.50137340  0.09624534  0.40240804     1.11100
C799        C  0.90276547  0.40158036  0.49977901     1.08700
C800        C  0.59722427  0.40153696  0.50231168     1.09100
C801        C  0.59716585  0.09650400  0.50039111     1.08600
C802        C  0.90293835  0.09671946  0.50106787     1.08200
C803        C  0.90208839  0.49640320  0.40309180     1.08600
C804        C  0.59681558  0.49786916  0.40231733     1.08100
H805        H  0.94565529  0.05375601  0.44640115     0.34800
O806        O  0.96150399  0.03775155  0.46232539    -1.27700
H807        H  0.55433194  0.44365935  0.44519086     0.34800
O808        O  0.53845938  0.45972676  0.46103513    -1.29100
N809        N  0.75038358  0.99764404  0.31004712    -0.34700
N810        N  0.69143102  0.99718611  0.25141600    -0.55200
N811        N  0.74993739  0.99647022  0.19254883    -0.33400
N812        N  0.80901717  0.99916701  0.25104192    -0.55200
C813        C  0.71920252  0.00661040  0.33117181     0.28900
C814        C  0.78163307  0.00662997  0.33103988     0.28900
C815        C  0.71856498  0.00556940  0.17174990     0.28900
C816        C  0.78096418  0.00615095  0.17147389     0.28900
C817        C  0.66938166  0.99129101  0.28262740     0.37500
C818        C  0.66908986  0.99060885  0.22052520     0.37500
C819        C  0.83109563  0.99213148  0.28203555     0.37500
C820        C  0.83086411  0.99190467  0.21992443     0.37500
C821        C  0.73079592  0.02136239  0.36618298    -0.20000
C822        C  0.77021845  0.02130504  0.36612911    -0.20000
C823        C  0.72978353  0.02116075  0.13700704    -0.20000
C824        C  0.76918401  0.02149407  0.13682083    -0.20000
C825        C  0.63278119  0.98073932  0.27152778    -0.21000
C826        C  0.63259474  0.98033061  0.23214789    -0.21000
C827        C  0.86722167  0.98047054  0.27056210    -0.21000
C828        C  0.86706971  0.98033383  0.23117960    -0.21000
C829        C  0.68080529  0.99933672  0.32058014    -0.16400
C830        C  0.81991437  0.99926308  0.32025701    -0.16400
C831        C  0.81939625  0.99885345  0.18176637    -0.16400
C832        C  0.68032387  0.99772569  0.18232420    -0.16400
H833        H  0.71274455  0.03072958  0.38953811     0.16500
H834        H  0.78838370  0.03061772  0.38941956     0.16500
H835        H  0.71148243  0.03097629  0.11403511     0.16500
H836        H  0.78711241  0.03158764  0.11367824     0.16500
H837        H  0.60847917  0.97502539  0.28984808     0.14800
H838        H  0.60813015  0.97428010  0.21416576     0.14800
H839        H  0.89131777  0.97336938  0.28865735     0.14800
H840        H  0.89101836  0.97312268  0.21293042     0.14800
H841        H  0.75039805  0.98208624  0.28468292     0.28100
H842        H  0.75022696  0.98038497  0.21759776     0.28100
N843        N  0.74959303  0.30815770  0.49732374    -0.34700
N844        N  0.69081845  0.24868294  0.50072256    -0.55200
N845        N  0.74996389  0.18970795  0.49693275    -0.34700
N846        N  0.80875570  0.24917077  0.49875668    -0.55200
C847        C  0.71842614  0.32980498  0.50514281     0.28900
C848        C  0.78087592  0.33015199  0.50360278     0.28900
C849        C  0.71884720  0.16757116  0.50337509     0.28900
C850        C  0.78130590  0.16783040  0.50319288     0.28900
C851        C  0.66795633  0.27971003  0.49700172     0.37500
C852        C  0.66823094  0.21762953  0.49577314     0.37500
C853        C  0.83133728  0.28029510  0.49410169     0.37500
C854        C  0.83147413  0.21814789  0.49408132     0.37500
C855        C  0.73005139  0.36627296  0.51567571    -0.20000
C856        C  0.76938342  0.36650521  0.51466163    -0.20000
C857        C  0.73055755  0.13088427  0.51305466    -0.20000
C858        C  0.76991779  0.13106633  0.51301462    -0.20000
C859        C  0.63059774  0.26826525  0.49023902    -0.21000
C860        C  0.63078485  0.22901915  0.48936504    -0.21000
C861        C  0.86864150  0.26894585  0.48690301    -0.21000
C862        C  0.86871081  0.22967892  0.48681406    -0.21000
C863        C  0.67979355  0.31816772  0.50151989    -0.16400
C864        C  0.81943850  0.31876689  0.49850933    -0.16400
C865        C  0.81981813  0.17960974  0.49867101    -0.16400
C866        C  0.68024495  0.17913718  0.49931125    -0.16400
H867        H  0.71207282  0.39027438  0.52338927     0.16500
H868        H  0.78744896  0.39070390  0.52149686     0.16500
H869        H  0.71263260  0.10646254  0.51948197     0.16500
H870        H  0.78805652  0.10678819  0.51936969     0.16500
H871        H  0.60571909  0.28629952  0.48650562     0.14800
H872        H  0.60605907  0.21093602  0.48488357     0.14800
H873        H  0.89336243  0.28705846  0.48253492     0.14800
H874        H  0.89348929  0.21167567  0.48233291     0.14800
H875        H  0.74943082  0.28128487  0.48481497     0.28100
H876        H  0.74977396  0.21691965  0.48524709     0.28100
C877        C  0.84880639  0.34832912  0.49906313    -0.11300
C878        C  0.87344240  0.37262902  0.49945226    -0.12900
C879        C  0.87387612  0.12589981  0.50054940    -0.11300
C880        C  0.84936407  0.15028783  0.49973434    -0.12900
C881        C  0.65045472  0.34766502  0.50288861    -0.11300
C882        C  0.62623024  0.37233718  0.50315385    -0.12900
C883        C  0.62626264  0.12552001  0.50025066    -0.11300
C884        C  0.65091603  0.14970050  0.49990168    -0.12900
C885        C  0.87295295  0.49512253  0.37414679    -0.11300
C886        C  0.84916354  0.99972663  0.34983677    -0.12900
C887        C  0.65141053  0.00130959  0.34993341    -0.11300
C888        C  0.62601068  0.49770799  0.37338984    -0.12900
C889        C  0.65125101  0.99821668  0.15250184    -0.11300
C890        C  0.62760044  0.99843209  0.12721387    -0.12900
C891        C  0.84845797  0.99925590  0.15184442    -0.11300
C892        C  0.87267632  0.99927824  0.12703896    -0.12900
C893        C  0.50394302  0.15007555  0.34924268    -0.11300
C894        C  0.50271049  0.12542927  0.37344416    -0.12900
C895        C  0.49905819  0.37249591  0.37306005    -0.11300
C896        C  0.50042708  0.34815027  0.34859419    -0.12900
C897        C  0.50083762  0.34764510  0.15096924    -0.11300
C898        C  0.50089494  0.37196239  0.12640343    -0.12900
C899        C  0.49891240  0.15012938  0.15155479    -0.11300
C900        C  0.49944969  0.12617920  0.12663628    -0.12900
N901        N  0.49742736  0.24955027  0.69074602    -0.34700
N902        N  0.49953966  0.19028463  0.74962942    -0.55200
N903        N  0.49528558  0.24956042  0.80862166    -0.34700
N904        N  0.49871418  0.30891654  0.74977065    -0.55200
C905        C  0.50290238  0.21828297  0.66854494     0.28900
C906        C  0.50366461  0.28072806  0.66865637     0.28900
C907        C  0.50125147  0.21833114  0.83083316     0.28900
C908        C  0.50044934  0.28086566  0.83089577     0.28900
C909        C  0.49529240  0.16758156  0.71856378     0.37500
C910        C  0.49530274  0.16750687  0.78063219     0.37500
C911        C  0.49722207  0.33184422  0.71866779     0.37500
C912        C  0.49546868  0.33190791  0.78070111     0.37500
C913        C  0.51204942  0.22977046  0.63166095    -0.20000
C914        C  0.51252456  0.26908067  0.63172100    -0.20000
C915        C  0.50944267  0.22999170  0.86788260    -0.20000
C916        C  0.50889880  0.26931783  0.86793595    -0.20000
C917        C  0.48908802  0.13007940  0.72991976    -0.21000
C918        C  0.48917355  0.13001952  0.76917197    -0.21000
C919        C  0.49374066  0.36976297  0.72992929    -0.21000
C920        C  0.49258829  0.36979851  0.76918260    -0.21000
C921        C  0.49846930  0.17970499  0.68007937    -0.16400
C922        C  0.50049678  0.31940949  0.68029468    -0.16400
C923        C  0.49715570  0.31957923  0.81921759    -0.16400
C924        C  0.49822408  0.17958402  0.81915726    -0.16400
H925        H  0.51779999  0.21171715  0.60716237     0.16500
H926        H  0.51873466  0.28702704  0.60725524     0.16500
H927        H  0.51529326  0.21203687  0.89242433     0.16500
H928        H  0.51438003  0.28735039  0.89251261     0.16500
H929        H  0.48498009  0.10528288  0.71182760     0.14800
H930        H  0.48507028  0.10517756  0.78719830     0.14800
H931        H  0.49250489  0.39484871  0.71180283     0.14800
H932        H  0.49036077  0.39492257  0.78716063     0.14800
H933        H  0.48635861  0.24962573  0.71819888     0.28100
H934        H  0.48476697  0.24947665  0.78094786     0.28100
O935        O  0.49854367  0.10823680  0.56193268    -0.84600
O936        O  0.50015683  0.38982231  0.56188612    -0.84700
O937        O  0.93802072  0.99887709  0.61008804    -0.86400
O938        O  0.56164516  0.99884115  0.60969054    -0.85200
O939        O  0.60871132  0.49886042  0.56188763    -0.84700
O940        O  0.89104818  0.50184606  0.56193985    -0.86100
O941        O  0.50097072  0.43640390  0.60838830    -0.84600
O942        O  0.49804955  0.06173562  0.60851154    -0.84200
Zr943      Zr  0.49988420  0.49892349  0.57746140     2.84300
O944        O  0.53821450  0.46023962  0.53852835    -1.06200
O945        O  0.96192870  0.03752770  0.53981358    -1.06900
C946        C  0.49800144  0.09689932  0.59707004     1.08500
C947        C  0.50085715  0.40129557  0.59696888     1.08500
C948        C  0.90286464  0.99941607  0.59868493     1.11500
C949        C  0.59674518  0.99861166  0.59823302     1.09300
H950        H  0.94532528  0.44438054  0.55486536     0.34800
O951        O  0.96124927  0.46022350  0.53884777    -1.27100
H952        H  0.55405162  0.05386439  0.55526732     0.34500
O953        O  0.53826356  0.03786248  0.53926526    -1.28800
O954        O  0.49871391  0.39045055  0.93770809    -0.84600
O955        O  0.50010633  0.10781517  0.93713113    -0.86100
O956        O  0.89061585  0.43677410  0.99925302    -0.84600
O957        O  0.60928381  0.43690944  0.99982155    -0.84700
O958        O  0.60917434  0.06193012  0.00029351    -0.84400
O959        O  0.89110769  0.06168242  0.00013566    -0.84200
O960        O  0.93775014  0.49826351  0.89115978    -0.84600
O961        O  0.56254681  0.49980070  0.89117243    -0.84000
O962        O  0.89108362  0.49924512  0.93753877    -0.85100
O963        O  0.60898527  0.49891187  0.93776074    -0.84300
O964        O  0.93727096  0.39040453  0.99982580    -0.84700
O965        O  0.93770533  0.10812735  0.00049753    -0.84400
O966        O  0.56268006  0.10846651  0.99943556    -0.84000
O967        O  0.56261703  0.39054298  0.99920729    -0.84400
O968        O  0.49960090  0.43704440  0.89124544    -0.84700
O969        O  0.50015328  0.06100985  0.89085844    -0.86100
Zr970      Zr  0.49996779  0.42183181  0.00014309     2.83100
Zr971      Zr  0.50051717  0.07668125  0.99976268     2.83500
Zr972      Zr  0.92229984  0.49894312  0.00013817     2.84100
Zr973      Zr  0.57749922  0.49898185  0.00026687     2.83400
Zr974      Zr  0.50020842  0.49929938  0.92287031     2.84200
O975        O  0.53921525  0.03771117  0.96116246    -1.06600
O976        O  0.96107570  0.46015520  0.96160235    -1.06100
C977        C  0.49879958  0.40190258  0.90257441     1.08500
C978        C  0.49997214  0.09628279  0.90201644     1.11100
C979        C  0.90211576  0.40168347  0.99927426     1.08700
C980        C  0.59781785  0.40181927  0.99927126     1.09100
C981        C  0.59779267  0.09706042  0.00000231     1.08600
C982        C  0.90257591  0.09679601  0.00044154     1.08200
C983        C  0.90259639  0.49865376  0.90241932     1.08600
C984        C  0.59768790  0.49940504  0.90256371     1.08100
H985        H  0.94515216  0.05370203  0.94515699     0.34800
O986        O  0.96108186  0.03778455  0.96110026    -1.27700
H987        H  0.55456216  0.44446289  0.94543170     0.34800
O988        O  0.53874915  0.46039866  0.96146174    -1.29100
N989        N  0.74922426  0.00017838  0.80850144    -0.34700
N990        N  0.69008804  0.99910803  0.74989032    -0.55200
N991        N  0.74952408  0.00043688  0.69150572    -0.33400
N992        N  0.80861260  0.99894729  0.75019532    -0.55200
C993        C  0.71793193  0.99232391  0.82994154     0.28900
C994        C  0.78038250  0.99225125  0.83015338     0.28900
C995        C  0.71833891  0.99400153  0.66945104     0.28900
C996        C  0.78085920  0.99415339  0.66959371     0.28900
C997        C  0.66759225  0.00436766  0.78084773     0.37500
C998        C  0.66773200  0.00458138  0.71888043     0.37500
C999        C  0.83061164  0.00534705  0.78133121     0.37500
C1000       C  0.83081431  0.00579650  0.71930354     0.37500
C1001       C  0.72934215  0.97951988  0.86573642    -0.20000
C1002       C  0.76870466  0.97946962  0.86586580    -0.20000
C1003       C  0.73002607  0.98378569  0.63289881    -0.20000
C1004       C  0.76940929  0.98385916  0.63299364    -0.20000
C1005       C  0.63051848  0.01282851  0.76949461    -0.21000
C1006       C  0.63060420  0.01296363  0.73018575    -0.21000
C1007       C  0.86714873  0.01604875  0.77019828    -0.21000
C1008       C  0.86728631  0.01632170  0.73086756    -0.21000
C1009       C  0.67950714  0.99881828  0.81901906    -0.16400
C1010       C  0.81889567  0.99881607  0.81944454    -0.16400
C1011       C  0.81930975  0.00017675  0.68095564    -0.16400
C1012       C  0.67976685  0.99950409  0.68064840    -0.16400
H1013       H  0.71118691  0.97147311  0.88950168     0.16500
H1014       H  0.78667206  0.97143762  0.88976783     0.16500
H1015       H  0.71205876  0.97755250  0.60845828     0.16500
H1016       H  0.78752049  0.97774219  0.60863048     0.16500
H1017       H  0.60588354  0.01779557  0.78759180     0.14800
H1018       H  0.60604694  0.01813404  0.71204323     0.14800
H1019       H  0.89127277  0.02257736  0.78847843     0.14800
H1020       H  0.89153678  0.02316061  0.71286726     0.14800
H1021       H  0.74929946  0.01455080  0.78252900     0.28100
H1022       H  0.74942445  0.01272117  0.71848201     0.28100
N1023       N  0.75015662  0.30800196  0.99595967    -0.34700
N1024       N  0.69120949  0.24927155  0.99909767    -0.55200
N1025       N  0.75027665  0.19021604  0.99872396    -0.34700
N1026       N  0.80927755  0.24905985  0.99914972    -0.55200
C1027       C  0.71900587  0.33003879  0.00256906     0.28900
C1028       C  0.78140326  0.32984239  0.00270592     0.28900
C1029       C  0.71909480  0.16829177  0.00543470     0.28900
C1030       C  0.78152418  0.16827494  0.00514151     0.28900
C1031       C  0.66836031  0.28019678  0.99483542     0.37500
C1032       C  0.66840880  0.21815383  0.99634045     0.37500
C1033       C  0.83175048  0.27999253  0.99339844     0.37500
C1034       C  0.83178892  0.21798710  0.99434052     0.37500
C1035       C  0.73063565  0.36652462  0.01300920    -0.20000
C1036       C  0.76995583  0.36639479  0.01312313    -0.20000
C1037       C  0.73069278  0.13172080  0.01572340    -0.20000
C1038       C  0.77004500  0.13172317  0.01558099    -0.20000
C1039       C  0.63074058  0.26867378  0.98988079    -0.21000
C1040       C  0.63076207  0.22943202  0.99086465    -0.21000
C1041       C  0.86885388  0.26853187  0.98534252    -0.21000
C1042       C  0.86887135  0.22926710  0.98589482    -0.21000
C1043       C  0.68042292  0.31866556  0.99805238    -0.16400
C1044       C  0.81989154  0.31837621  0.99778117    -0.16400
C1045       C  0.81998517  0.17969796  0.99974884    -0.16400
C1046       C  0.68053577  0.17979800  0.00081788    -0.16400
H1047       H  0.71266801  0.39080201  0.01981450     0.16500
H1048       H  0.78804416  0.39058625  0.01992386     0.16500
H1049       H  0.71269192  0.10743228  0.02243100     0.16500
H1050       H  0.78811281  0.10742753  0.02207920     0.16500
H1051       H  0.60575531  0.28665109  0.98658359     0.14800
H1052       H  0.60577878  0.21131663  0.98840953     0.14800
H1053       H  0.89343546  0.28656956  0.97997154     0.14800
H1054       H  0.89347519  0.21112286  0.98100966     0.14800
H1055       H  0.75013871  0.28107717  0.98354866     0.28100
H1056       H  0.75020791  0.21715400  0.98646240     0.28100
C1057       C  0.84908710  0.34786622  0.99824332    -0.11300
C1058       C  0.87323435  0.37251172  0.99871893    -0.12900
C1059       C  0.87362572  0.12588322  0.00055036    -0.11300
C1060       C  0.84924670  0.15029049  0.00034283    -0.12900
C1061       C  0.65125487  0.34827464  0.99828790    -0.11300
C1062       C  0.62685863  0.37272587  0.99862298    -0.12900
C1063       C  0.62686614  0.12601768  0.00067869    -0.11300
C1064       C  0.65137310  0.15029122  0.00115082    -0.12900
C1065       C  0.87372182  0.49837114  0.87320958    -0.11300
C1066       C  0.84813936  0.99804202  0.84904922    -0.12900
C1067       C  0.65056751  0.99889012  0.84870994    -0.11300
C1068       C  0.62683594  0.49940609  0.87346814    -0.12900
C1069       C  0.65056926  0.99904293  0.65120794    -0.11300
C1070       C  0.62588653  0.99872783  0.62711630    -0.12900
C1071       C  0.84880635  0.99998152  0.65166377    -0.11300
C1072       C  0.87363289  0.99971717  0.62762423    -0.12900
C1073       C  0.49887423  0.15013698  0.84863206    -0.11300
C1074       C  0.49940850  0.12540363  0.87283678    -0.12900
C1075       C  0.49794471  0.37295375  0.87343346    -0.11300
C1076       C  0.49739321  0.34873392  0.84882506    -0.12900
C1077       C  0.50132003  0.34838015  0.65067977    -0.11300
C1078       C  0.50134995  0.37242230  0.62599895    -0.12900
C1079       C  0.49798772  0.15052428  0.65045818    -0.11300
C1080       C  0.49770694  0.12606711  0.62605139    -0.12900
N1081       N  0.49740805  0.74949492  0.19221159    -0.34700
N1082       N  0.49936588  0.68953775  0.25051751    -0.55200
N1083       N  0.49660279  0.74829128  0.30995479    -0.34700
N1084       N  0.49975113  0.80825536  0.25145107    -0.55200
C1085       C  0.50262302  0.71833159  0.16975224     0.28900
C1086       C  0.50369347  0.78090746  0.17035302     0.28900
C1087       C  0.50271352  0.71694400  0.33188417     0.28900
C1088       C  0.50182629  0.77941581  0.33240706     0.28900
C1089       C  0.49571030  0.66695631  0.21933695     0.37500
C1090       C  0.49667795  0.66637859  0.28137227     0.37500
C1091       C  0.49638515  0.83139509  0.22064426     0.37500
C1092       C  0.49537470  0.83067456  0.28263134     0.37500
C1093       C  0.51167158  0.73016044  0.13296090    -0.20000
C1094       C  0.51242010  0.76950124  0.13335581    -0.20000
C1095       C  0.51085281  0.72834493  0.36904594    -0.20000
C1096       C  0.51024940  0.76764970  0.36937878    -0.20000
C1097       C  0.49125555  0.62910560  0.23046886    -0.21000
C1098       C  0.49190044  0.62873646  0.26972479    -0.21000
C1099       C  0.49046869  0.86885607  0.23233709    -0.21000
C1100       C  0.48979830  0.86839977  0.27157622    -0.21000
C1101       C  0.49834364  0.67953592  0.18095353    -0.16400
C1102       C  0.50014059  0.81958409  0.18214910    -0.16400
C1103       C  0.49835986  0.81814551  0.32095140    -0.16400
C1104       C  0.50022731  0.67831359  0.31985538    -0.16400
H1105       H  0.51718008  0.71229714  0.10827602     0.16500
H1106       H  0.51851560  0.78764255  0.10901284     0.16500
H1107       H  0.51674574  0.71024674  0.39347506     0.16500
H1108       H  0.51561235  0.78552022  0.39409540     0.16500
H1109       H  0.48825940  0.60425066  0.21223535     0.14800
H1110       H  0.48937695  0.60357435  0.28760740     0.14800
H1111       H  0.48711007  0.89394571  0.21449585     0.14800
H1112       H  0.48586318  0.89309366  0.28985505     0.14800
H1113       H  0.48629847  0.74934896  0.21966159     0.28100
H1114       H  0.48614139  0.74845759  0.28226353     0.28100
O1115       O  0.49963404  0.60773034  0.06281183    -0.84600
O1116       O  0.50117628  0.89118535  0.06413810    -0.84700
O1117       O  0.93751681  0.50037501  0.10926897    -0.86400
O1118       O  0.56238571  0.49940836  0.10956781    -0.85200
O1119       O  0.61023108  0.99895822  0.06251363    -0.84700
O1120       O  0.89052342  0.99911815  0.06249462    -0.86100
O1121       O  0.50106201  0.93797093  0.11039599    -0.84600
O1122       O  0.49897390  0.56132207  0.10947305    -0.84200
Zr1123     Zr  0.50098219  0.99969465  0.07771208     2.84300
O1124       O  0.53969989  0.96072168  0.03933261    -1.06200
O1125       O  0.96095743  0.53750373  0.03882068    -1.06900
C1126       C  0.49891760  0.59646323  0.09800884     1.08500
C1127       C  0.50117763  0.90274625  0.09926615     1.08500
C1128       C  0.90239610  0.50061128  0.09787917     1.11500
C1129       C  0.59749257  0.49947574  0.09813988     1.09300
H1130       H  0.94489724  0.94436341  0.05458687     0.34800
O1131       O  0.96079543  0.96035066  0.03868742    -1.27100
H1132       H  0.55488559  0.55374737  0.05496692     0.34500
O1133       O  0.53899904  0.53783839  0.03898061    -1.28800
O1134       O  0.50035155  0.89005016  0.43831121    -0.84600
O1135       O  0.50125623  0.60738595  0.43781077    -0.86100
O1136       O  0.89130705  0.93673714  0.49949877    -0.84600
O1137       O  0.60874158  0.93709617  0.50029694    -0.84700
O1138       O  0.60791576  0.56135384  0.49909919    -0.84400
O1139       O  0.89151022  0.56196410  0.49986915    -0.84200
O1140       O  0.93753292  0.99893006  0.39237914    -0.84600
O1141       O  0.56216436  0.00094067  0.39126578    -0.84000
O1142       O  0.89106978  0.99999284  0.43892308    -0.85100
O1143       O  0.60837867  0.00162291  0.43809349    -0.84300
O1144       O  0.93753747  0.88998618  0.50075680    -0.84700
O1145       O  0.93806294  0.60838302  0.50075485    -0.84400
O1146       O  0.56149203  0.60792672  0.50024986    -0.84000
O1147       O  0.56216609  0.89064712  0.50065806    -0.84400
O1148       O  0.50026376  0.93637536  0.39157649    -0.84700
O1149       O  0.50185004  0.56071538  0.39142415    -0.86100
Zr1150     Zr  0.49986189  0.92180756  0.50031056     2.83100
Zr1151     Zr  0.49952115  0.57609442  0.50014730     2.83500
Zr1152     Zr  0.92289290  0.99914071  0.50118084     2.84100
Zr1153     Zr  0.57697873  0.99924242  0.50053395     2.83400
Zr1154     Zr  0.49979119  0.99895343  0.42277273     2.84200
O1155       O  0.53807998  0.53745532  0.46126987    -1.06600
O1156       O  0.96124259  0.96026475  0.46244176    -1.06100
C1157       C  0.50032009  0.90128782  0.40316290     1.08500
C1158       C  0.50212434  0.59584190  0.40273653     1.11100
C1159       C  0.90244087  0.90150349  0.49973346     1.08700
C1160       C  0.59726185  0.90199397  0.50046372     1.09100
C1161       C  0.59657387  0.59649729  0.49978591     1.08600
C1162       C  0.90284821  0.59713358  0.50063628     1.08200
C1163       C  0.90239983  0.99956952  0.40373941     1.08600
C1164       C  0.59723678  0.00178550  0.40285608     1.08100
H1165       H  0.94533879  0.55385266  0.44487416     0.34800
O1166       O  0.96130818  0.53795067  0.46079751    -1.27700
H1167       H  0.55477323  0.94466856  0.44560333     0.34800
O1168       O  0.53867442  0.96043109  0.46152924    -1.29100
N1169       N  0.74982918  0.49509899  0.30928608    -0.34700
N1170       N  0.69079367  0.49832471  0.25059532    -0.55200
N1171       N  0.75009487  0.49764153  0.19187214    -0.33400
N1172       N  0.80924738  0.49849240  0.25063746    -0.55200
C1173       C  0.71866291  0.50268418  0.33104959     0.28900
C1174       C  0.78109727  0.50170834  0.33116204     0.28900
C1175       C  0.71881499  0.50450523  0.17004547     0.28900
C1176       C  0.78130437  0.50487612  0.17005279     0.28900
C1177       C  0.66820756  0.49295311  0.28151379     0.37500
C1178       C  0.66827133  0.49375572  0.21950551     0.37500
C1179       C  0.83167586  0.49239140  0.28154586     0.37500
C1180       C  0.83191493  0.49458719  0.21953142     0.37500
C1181       C  0.73030433  0.51394690  0.36729156    -0.20000
C1182       C  0.76965193  0.51324100  0.36739148    -0.20000
C1183       C  0.73033255  0.51569968  0.13374263    -0.20000
C1184       C  0.76967088  0.51592714  0.13374196    -0.20000
C1185       C  0.63100429  0.48534251  0.27003753    -0.21000
C1186       C  0.63104405  0.48585613  0.23075385    -0.21000
C1187       C  0.86896807  0.48520262  0.27004383    -0.21000
C1188       C  0.86913123  0.48665284  0.23076739    -0.21000
C1189       C  0.68008745  0.49752480  0.31985331    -0.16400
C1190       C  0.81956480  0.49580281  0.31998314    -0.16400
C1191       C  0.81993328  0.49992019  0.18126058    -0.16400
C1192       C  0.68023672  0.49909863  0.18124699    -0.16400
H1193       H  0.71231450  0.52157859  0.39131688     0.16500
H1194       H  0.78777071  0.52029501  0.39149433     0.16500
H1195       H  0.71227014  0.52275858  0.10960428     0.16500
H1196       H  0.78765306  0.52319045  0.10959943     0.16500
H1197       H  0.60630128  0.48045155  0.28805915     0.14800
H1198       H  0.60637115  0.48140843  0.21258570     0.14800
H1199       H  0.89357805  0.47986076  0.28805919     0.14800
H1200       H  0.89386116  0.48250676  0.21259780     0.14800
H1201       H  0.74977089  0.48195638  0.28266896     0.28100
H1202       H  0.75014202  0.48484289  0.21861724     0.28100
N1203       N  0.74895903  0.80828775  0.49784832    -0.34700
N1204       N  0.68973855  0.74896766  0.50220949    -0.55200
N1205       N  0.74914921  0.68997320  0.49985399    -0.34700
N1206       N  0.80826266  0.74937989  0.50157648    -0.55200
C1207       C  0.71770024  0.83061186  0.50235835     0.28900
C1208       C  0.78017917  0.83086161  0.50170162     0.28900
C1209       C  0.71794016  0.66770033  0.50519884     0.28900
C1210       C  0.78048312  0.66791357  0.50549994     0.28900
C1211       C  0.66691690  0.77993940  0.49808381     0.37500
C1212       C  0.66698983  0.71785692  0.49877779     0.37500
C1213       C  0.83071928  0.78037460  0.49561431     0.37500
C1214       C  0.83087908  0.71825539  0.49715700     0.37500
C1215       C  0.72921963  0.86817968  0.50825063    -0.20000
C1216       C  0.76854862  0.86832414  0.50785675    -0.20000
C1217       C  0.72961709  0.63065599  0.51345946    -0.20000
C1218       C  0.76897957  0.63082054  0.51376163    -0.20000
C1219       C  0.62931214  0.76841352  0.49283936    -0.21000
C1220       C  0.62935680  0.72916632  0.49326722    -0.21000
C1221       C  0.86786150  0.76883983  0.48795354    -0.21000
C1222       C  0.86796818  0.72960778  0.48894636    -0.21000
C1223       C  0.67909365  0.81852953  0.49995516    -0.16400
C1224       C  0.81880614  0.81901227  0.49830588    -0.16400
C1225       C  0.81911234  0.67972148  0.50155854    -0.16400
C1226       C  0.67926484  0.67936919  0.50161738    -0.16400
H1227       H  0.71119594  0.89303244  0.51228067     0.16500
H1228       H  0.78649357  0.89329214  0.51147586     0.16500
H1229       H  0.71166411  0.60598931  0.51874549     0.16500
H1230       H  0.78705101  0.60628507  0.51921590     0.16500
H1231       H  0.60441516  0.78638872  0.48890759     0.14800
H1232       H  0.60448749  0.71105541  0.48978990     0.14800
H1233       H  0.89236449  0.78681725  0.48207215     0.14800
H1234       H  0.89257784  0.71150576  0.48397743     0.14800
H1235       H  0.74891485  0.78001912  0.48921403     0.28100
H1236       H  0.74906217  0.71757690  0.48920031     0.28100
C1237       C  0.84832225  0.84841852  0.49830661    -0.11300
C1238       C  0.87308545  0.87258363  0.49884275    -0.12900
C1239       C  0.87359156  0.62624437  0.50143925    -0.11300
C1240       C  0.84872995  0.65035693  0.50184892    -0.12900
C1241       C  0.64992866  0.84798828  0.49999204    -0.11300
C1242       C  0.62602629  0.87281730  0.50021258    -0.12900
C1243       C  0.62564235  0.62546783  0.50052943    -0.11300
C1244       C  0.65009393  0.64981242  0.50129549    -0.12900
C1245       C  0.87336110  0.99982066  0.37454946    -0.11300
C1246       C  0.84857763  0.49497886  0.34969017    -0.12900
C1247       C  0.65080002  0.49775278  0.34933498    -0.11300
C1248       C  0.62660632  0.00220937  0.37400939    -0.12900
C1249       C  0.65101958  0.49983283  0.15166906    -0.11300
C1250       C  0.62660731  0.49989466  0.12720625    -0.12900
C1251       C  0.84909830  0.50085540  0.15162185    -0.11300
C1252       C  0.87335940  0.50109197  0.12700816    -0.12900
C1253       C  0.50215624  0.64891265  0.34907446    -0.11300
C1254       C  0.50285848  0.62466991  0.37359485    -0.12900
C1255       C  0.50008745  0.87202067  0.37444724    -0.11300
C1256       C  0.49934670  0.84726741  0.35045356    -0.12900
C1257       C  0.50088509  0.84913740  0.15282647    -0.11300
C1258       C  0.50114497  0.87375369  0.12852558    -0.12900
C1259       C  0.49813917  0.65046045  0.15115994    -0.11300
C1260       C  0.49824463  0.62576220  0.12694522    -0.12900
N1261       N  0.50243465  0.74858078  0.69129227    -0.34700
N1262       N  0.49956428  0.68961057  0.74950433    -0.55200
N1263       N  0.50041784  0.74838158  0.80841328    -0.34700
N1264       N  0.50057234  0.80732656  0.75022541    -0.55200
C1265       C  0.49359680  0.71749239  0.66997026     0.28900
C1266       C  0.49380261  0.77984965  0.67019145     0.28900
C1267       C  0.49114998  0.71709684  0.82926868     0.28900
C1268       C  0.49199446  0.77953077  0.82985413     0.28900
C1269       C  0.50765819  0.66784513  0.71859361     0.37500
C1270       C  0.50635391  0.66760658  0.78054460     0.37500
C1271       C  0.50767920  0.82944278  0.71926611     0.37500
C1272       C  0.50679808  0.82943713  0.78140068     0.37500
C1273       C  0.47919272  0.72908971  0.63486188    -0.20000
C1274       C  0.47932849  0.76850270  0.63499837    -0.20000
C1275       C  0.47662022  0.72847063  0.86441624    -0.20000
C1276       C  0.47721014  0.76789509  0.86480993    -0.20000
C1277       C  0.51946136  0.63174794  0.72998221    -0.21000
C1278       C  0.51859969  0.63158487  0.76931046    -0.21000
C1279       C  0.51820647  0.86589055  0.73080938    -0.21000
C1280       C  0.51760390  0.86590176  0.77017478    -0.21000
C1281       C  0.50114787  0.67923053  0.68045896    -0.16400
C1282       C  0.50137220  0.81808600  0.68094867    -0.16400
C1283       C  0.49993150  0.81787614  0.81958654    -0.16400
C1284       C  0.49876524  0.67882908  0.81858646    -0.16400
H1285       H  0.47006691  0.71104688  0.61139682     0.16500
H1286       H  0.47028318  0.78672354  0.61164847     0.16500
H1287       H  0.46722270  0.71025125  0.88763324     0.16500
H1288       H  0.46825617  0.78591710  0.88835338     0.16500
H1289       H  0.52727783  0.60788428  0.71185554     0.14800
H1290       H  0.52567623  0.60756592  0.78752285     0.14800
H1291       H  0.52490970  0.89013504  0.71275159     0.14800
H1292       H  0.52378934  0.89014878  0.78841275     0.14800
H1293       H  0.51791771  0.74846319  0.71668752     0.28100
H1294       H  0.51613068  0.74835862  0.78317372     0.28100
O1295       O  0.50028574  0.60769129  0.56242914    -0.84600
O1296       O  0.50029562  0.88960897  0.56236291    -0.84700
O1297       O  0.93756572  0.49993879  0.60841725    -0.86400
O1298       O  0.56244660  0.49814583  0.60865557    -0.85200
O1299       O  0.60808682  0.99851412  0.56308006    -0.84700
O1300       O  0.89151948  0.99965039  0.56353608    -0.86100
O1301       O  0.50060005  0.93602520  0.60898330    -0.84600
O1302       O  0.50080978  0.56129154  0.60907753    -0.84200
Zr1303     Zr  0.49959831  0.99880970  0.57774293     2.84300
O1304       O  0.53853333  0.96027850  0.53918532    -1.06200
O1305       O  0.96173340  0.53780315  0.53866387    -1.06900
C1306       C  0.50079331  0.59641667  0.59760100     1.08500
C1307       C  0.50069913  0.90084628  0.59756979     1.08500
C1308       C  0.90243702  0.50128162  0.59705453     1.11500
C1309       C  0.59753019  0.49838219  0.59709302     1.09300
H1310       H  0.94542264  0.94422535  0.55587452     0.34800
O1311       O  0.96137235  0.96017389  0.53998673    -1.27100
H1312       H  0.55446968  0.55342608  0.55450848     0.34500
O1313       O  0.53842954  0.53753372  0.53866171    -1.28800
O1314       O  0.50041149  0.88940176  0.93885321    -0.84600
O1315       O  0.50102049  0.60785836  0.93728223    -0.86100
O1316       O  0.89084381  0.93654527  0.99872669    -0.84600
O1317       O  0.60987238  0.93703588  0.00013982    -0.84700
O1318       O  0.60908638  0.56122992  0.99999553    -0.84400
O1319       O  0.89023684  0.56090937  0.00139475    -0.84200
O1320       O  0.93725585  0.99799116  0.89093960    -0.84600
O1321       O  0.56253497  0.99873494  0.89126625    -0.84000
O1322       O  0.89074293  0.99870382  0.93749638    -0.85100
O1323       O  0.60917629  0.00000948  0.93767287    -0.84300
O1324       O  0.93735671  0.89004208  0.99878651    -0.84700
O1325       O  0.93660308  0.60755057  0.00129112    -0.84400
O1326       O  0.56276895  0.60793806  0.00045604    -0.84000
O1327       O  0.56333709  0.89055737  0.00174475    -0.84400
O1328       O  0.50069922  0.93558533  0.89196464    -0.84700
O1329       O  0.50008343  0.56129214  0.89079409    -0.86100
Zr1330     Zr  0.50078771  0.92174880  0.00106724     2.83100
Zr1331     Zr  0.50051970  0.57667207  0.00011190     2.83500
Zr1332     Zr  0.92225031  0.99911940  0.99990862     2.84100
Zr1333     Zr  0.57807925  0.99937309  0.00023674     2.83400
Zr1334     Zr  0.50038263  0.99858742  0.92284191     2.84200
O1335       O  0.53915997  0.53788983  0.96142704    -1.06600
O1336       O  0.96110245  0.96060273  0.96114281    -1.06100
C1337       C  0.50055256  0.90044740  0.90353592     1.08500
C1338       C  0.50045280  0.59645129  0.90209143     1.11100
C1339       C  0.90218419  0.90135912  0.99845640     1.08700
C1340       C  0.59848705  0.90187699  0.00103952     1.09100
C1341       C  0.59780998  0.59639699  0.00031801     1.08600
C1342       C  0.90149125  0.59607124  0.00172389     1.08200
C1343       C  0.90206993  0.99810559  0.90232173     1.08600
C1344       C  0.59765661  0.99940211  0.90257206     1.08100
H1345       H  0.94486471  0.55366623  0.94513426     0.34800
O1346       O  0.96073099  0.53773834  0.96113213    -1.27700
H1347       H  0.55516162  0.94431598  0.94608212     0.34800
O1348       O  0.53923914  0.96033801  0.96192644    -1.29100
N1349       N  0.75033150  0.49669153  0.80858118    -0.34700
N1350       N  0.69094240  0.49992813  0.74966435    -0.55200
N1351       N  0.75014641  0.49729364  0.69077200    -0.33400
N1352       N  0.80957631  0.49935799  0.74968743    -0.55200
C1353       C  0.71915783  0.50225800  0.83091566     0.28900
C1354       C  0.78165578  0.50161225  0.83085063     0.28900
C1355       C  0.71890090  0.50279864  0.66856096     0.28900
C1356       C  0.78134893  0.50344245  0.66867029     0.28900
C1357       C  0.66819504  0.49625083  0.78076176     0.37500
C1358       C  0.66815053  0.49584860  0.71864919     0.37500
C1359       C  0.83232497  0.49466750  0.78060954     0.37500
C1360       C  0.83219273  0.49547086  0.71856066     0.37500
C1361       C  0.73087669  0.51000891  0.86805788    -0.20000
C1362       C  0.77019172  0.50959829  0.86802056    -0.20000
C1363       C  0.73043535  0.51177977  0.63164907    -0.20000
C1364       C  0.76973666  0.51226965  0.63173749    -0.20000
C1365       C  0.63060455  0.49063723  0.76939088    -0.21000
C1366       C  0.63058265  0.49032981  0.73011544    -0.21000
C1367       C  0.86975501  0.48834029  0.76905612    -0.21000
C1368       C  0.86966637  0.48883447  0.72977981    -0.21000
C1369       C  0.68043018  0.49910456  0.81928217    -0.16400
C1370       C  0.82026434  0.49774767  0.81911195    -0.16400
C1371       C  0.82000014  0.49964324  0.68020908    -0.16400
C1372       C  0.68029752  0.49865586  0.68012468    -0.16400
H1373       H  0.71297179  0.51532283  0.89275841     0.16500
H1374       H  0.78825590  0.51453384  0.89268516     0.16500
H1375       H  0.71242185  0.51738628  0.60709651     0.16500
H1376       H  0.78770479  0.51823367  0.60723296     0.16500
H1377       H  0.60573750  0.48708397  0.78749021     0.14800
H1378       H  0.60569266  0.48657747  0.71208679     0.14800
H1379       H  0.89458425  0.48395108  0.78702665     0.14800
H1380       H  0.89441077  0.48489408  0.71158566     0.14800
H1381       H  0.75019966  0.48648423  0.78081926     0.28100
H1382       H  0.75019754  0.48614464  0.71819673     0.28100
N1383       N  0.74992044  0.80733085  0.00228352    -0.34700
N1384       N  0.69087538  0.74868363  0.00174809    -0.55200
N1385       N  0.74958322  0.68999819  0.00201099    -0.34700
N1386       N  0.80856705  0.74866280  0.00040113    -0.55200
C1387       C  0.71860604  0.82848146  0.99392559     0.28900
C1388       C  0.78098306  0.82857926  0.99316268     0.28900
C1389       C  0.71833784  0.66847888  0.99447845     0.28900
C1390       C  0.78069192  0.66831032  0.99447766     0.28900
C1391       C  0.66874978  0.77972626  0.00815349     0.37500
C1392       C  0.66860956  0.71769792  0.00795292     0.37500
C1393       C  0.83111788  0.77967773  0.00557692     0.37500
C1394       C  0.83092958  0.71761949  0.00606302     0.37500
C1395       C  0.72989695  0.86367557  0.97947238    -0.20000
C1396       C  0.76926151  0.86375675  0.97904453    -0.20000
C1397       C  0.72972389  0.63252249  0.98202961    -0.20000
C1398       C  0.76909791  0.63238975  0.98212462    -0.20000
C1399       C  0.63211548  0.76843068  0.01830567    -0.21000
C1400       C  0.63202042  0.72909892  0.01817317    -0.21000
C1401       C  0.86809665  0.76829355  0.01417056    -0.21000
C1402       C  0.86799201  0.72898996  0.01443276    -0.21000
C1403       C  0.68033357  0.81786426  0.00151286    -0.16400
C1404       C  0.81948400  0.81789510  0.99942929    -0.16400
C1405       C  0.81905530  0.67927813  0.00103219    -0.16400
C1406       C  0.68007674  0.67950471  0.00143196    -0.16400
H1407       H  0.71166834  0.88704837  0.97053598     0.16500
H1408       H  0.78720624  0.88718335  0.96968198     0.16500
H1409       H  0.71158300  0.60862055  0.97437328     0.16500
H1410       H  0.78711436  0.60839589  0.97447975     0.16500
H1411       H  0.60780165  0.78660743  0.02436648     0.14800
H1412       H  0.60763185  0.71099891  0.02418389     0.14800
H1413       H  0.89273947  0.78638817  0.01902285     0.14800
H1414       H  0.89256107  0.71086976  0.01954239     0.14800
H1415       H  0.75009895  0.78187121  0.01765474     0.28100
H1416       H  0.74971965  0.71616374  0.01606508     0.28100
C1417       C  0.84867522  0.84759337  0.99840563    -0.11300
C1418       C  0.87304809  0.87217360  0.99810552    -0.12900
C1419       C  0.87233022  0.62503084  0.00218526    -0.11300
C1420       C  0.84800432  0.64953333  0.00180515    -0.12900
C1421       C  0.65136002  0.84766895  0.00132221    -0.11300
C1422       C  0.62743474  0.87261647  0.00118734    -0.12900
C1423       C  0.62682584  0.62536650  0.00076769    -0.11300
C1424       C  0.65095811  0.64999796  0.00115304    -0.12900
C1425       C  0.87281612  0.99780576  0.87329632    -0.11300
C1426       C  0.84951736  0.49800331  0.84859743    -0.12900
C1427       C  0.65121589  0.49934088  0.84893858    -0.11300
C1428       C  0.62649977  0.99920466  0.87341079    -0.12900
C1429       C  0.65113856  0.49838535  0.65048435    -0.11300
C1430       C  0.62675883  0.49826940  0.62600595    -0.12900
C1431       C  0.84915156  0.50083686  0.65066051    -0.11300
C1432       C  0.87340714  0.50152314  0.62610859    -0.12900
C1433       C  0.49894731  0.64968203  0.84821847    -0.11300
C1434       C  0.49972274  0.62544393  0.87286263    -0.12900
C1435       C  0.50050939  0.87107011  0.87444234    -0.11300
C1436       C  0.50022821  0.84683744  0.84963702    -0.12900
C1437       C  0.50142486  0.84726810  0.65125911    -0.11300
C1438       C  0.50121225  0.87161254  0.62665469    -0.12900
C1439       C  0.50128864  0.65013673  0.65084481    -0.11300
C1440       C  0.50127553  0.62561750  0.62652102    -0.12900
loop_ 
_geom_bond_atom_site_label_1 
_geom_bond_atom_site_label_2 
_geom_bond_distance 
_geom_bond_site_symmetry_2 
_ccdc_geom_bond_type 
N1            C6   1.354   1_655  A
N1            C5   1.353   1_655  A
N1           H33   1.035       .  S
N2            C9   1.352       .  A
N2           C10   1.353       .  A
N3            C8   1.353   1_655  A
N3            C7   1.354   1_655  A
N3           H34   1.033       .  S
N4           C11   1.353       .  A
N4           C12   1.352       .  A
C5           C13   1.388       .  A
C5           C21   1.416   1_455  A
C6           C22   1.416       .  A
C6           C14   1.388       .  A
C7           C15   1.388       .  A
C7           C24   1.418   1_455  A
C8           C23   1.418   1_455  A
C8           C16   1.388       .  A
C9           C21   1.415       .  A
C9           C17   1.387       .  A
C10          C24   1.416       .  A
C10          C18   1.387       .  A
C11          C19   1.386       .  A
C11          C22   1.415   1_655  A
C12          C20   1.388       .  A
C12          C23   1.416       .  A
C13          C14   1.374       .  A
C13          H25   1.082       .  S
C14          H26   1.082       .  S
C15          C16   1.375       .  A
C15          H27   1.082       .  S
C16          H28   1.082       .  S
C17          C18   1.372       .  A
C17          H29   1.082       .  S
C18          H30   1.082       .  S
C19          C20   1.372       .  A
C19          H31   1.082       .  S
C20          H32   1.082       .  S
C21         C179   1.451       .  S
C22         C177   1.454       .  S
C23         C176   1.452       .  S
C24         C173   1.453   1_655  S
O35          C46   1.291       .  A
O35        Zr251   2.441   1_554  S
O36          C47   1.291       .  A
O36        Zr250   2.440   1_455  S
O37          C48   1.292       .  A
O37       Zr1123   2.447   1_545  S
O38          C49   1.292       .  A
O38        Zr403   2.442   1_455  S
O39         C409   1.290       .  A
O39        Zr253   2.437       .  S
O40         C408   1.290       .  A
O40        Zr252   2.434       .  S
O41          C47   1.292       .  A
O41         Zr43   2.445   1_455  S
O42          C46   1.291       .  A
O42        Zr403   2.441   1_545  S
Zr43       O1117   2.440       .  S
Zr43        O398   2.447   1_655  S
Zr43        O402   2.444       .  S
Zr43         O44   2.337   1_655  S
Zr43       O1125   2.343       .  S
Zr43        O413   2.342   1_655  S
Zr43        O771   2.347       .  S
O44        Zr250   2.339   1_455  S
O44        Zr253   2.339       .  S
O45       Zr1123   2.344   1_545  S
O45        Zr971   2.341   1_554  S
O45        Zr612   2.344   1_545  S
C46         C180   1.435       .  S
C47         C178   1.438       .  S
C48         C172   1.437       .  S
C48         O400   1.290       .  A
C49         C170   1.436       .  S
C49         O399   1.290       .  A
H50          O51   0.965       .  S
O51        Zr763   2.344       .  S
O51        Zr970   2.347       .  S
O51        Zr252   2.346       .  S
H52          O53   0.965       .  S
O53        Zr403   2.347   1_445  S
O53        Zr251   2.342   1_454  S
O53        Zr613   2.344   1_545  S
O54          C77   1.291       .  A
O54         Zr70   2.440   1_655  S
O55          C78   1.292       .  A
O55         Zr71   2.443       .  S
O56          C79   1.291       .  A
O56         Zr72   2.441       .  S
O57          C80   1.291       .  A
O57         Zr73   2.441       .  S
O58          C81   1.291       .  A
O58        Zr433   2.440   1_545  S
O59          C82   1.292       .  A
O59        Zr432   2.444   1_545  S
O60          C83   1.291       .  A
O60        Zr794   2.439       .  S
O61          C84   1.293       .  A
O61         Zr74   2.449       .  S
O62          C83   1.292       .  A
O62         Zr72   2.444       .  S
O63          C84   1.292       .  A
O63         Zr73   2.446       .  S
O64          C79   1.292       .  A
O64        Zr790   2.445       .  S
O65          C82   1.291       .  A
O65        Zr791   2.442       .  S
O66          C81   1.292       .  A
O66         Zr71   2.445       .  S
O67          C80   1.292       .  A
O67         Zr70   2.446       .  S
O68          C77   1.292       .  A
O68         Zr74   2.443   1_655  S
O69          C78   1.290       .  A
O69        Zr434   2.438   1_445  S
Zr70        O216   2.443       .  S
Zr70        O784   2.444   1_455  S
Zr70         O88   2.344       .  S
Zr70        O224   2.339       .  S
Zr70        O951   2.348   1_455  S
Zr70        O796   2.343   1_455  S
Zr71        O215   2.440   1_455  S
Zr71        O785   2.446   1_455  S
Zr71         O75   2.341       .  S
Zr71        O945   2.343   1_455  S
Zr71        O233   2.347       .  S
Zr71        O806   2.342   1_455  S
Zr72        O220   2.441       .  S
Zr72        O419   2.444       .  S
Zr72         O76   2.343       .  S
Zr72        O585   2.345       .  S
Zr72        O231   2.344       .  S
Zr72        O446   2.343       .  S
Zr73        O219   2.448       .  S
Zr73        O418   2.438       .  S
Zr73         O88   2.344       .  S
Zr73        O224   2.342       .  S
Zr73        O593   2.344       .  S
Zr73        O435   2.343       .  S
Zr74        O780   2.448   1_455  S
Zr74        O429   2.443       .  S
Zr74         O88   2.346       .  S
Zr74        O435   2.342       .  S
Zr74        O796   2.340   1_455  S
Zr74       O1166   2.346   1_455  S
O75        Zr433   2.341   1_545  S
O75        Zr434   2.342   1_445  S
O76        Zr790   2.338       .  S
O76        Zr794   2.339       .  S
C77         C175   1.436       .  S
C78         C174   1.436       .  S
C79         C158   1.438       .  S
C80         C162   1.438       .  S
C81         C163   1.437       .  S
C82         C159   1.438       .  S
C83         C165   1.436       .  S
C84         C168   1.442       .  S
H85          O86   0.965       .  S
O86        Zr791   2.343       .  S
O86        Zr432   2.345   1_545  S
O86       Zr1154   2.343   1_545  S
H87          O88   0.964       .  S
N89          C94   1.356       .  A
N89          C93   1.356       .  A
N89         H121   1.035       .  S
N90          C97   1.352       .  A
N90          C98   1.351   1_565  A
N91          C96   1.356   1_545  A
N91          C95   1.356   1_545  A
N91         H122   1.037       .  S
N92          C99   1.352       .  A
N92         C100   1.352   1_565  A
C93         C101   1.388   1_565  A
C93         C109   1.419       .  A
C94         C110   1.419       .  A
C94         C102   1.388   1_565  A
C95         C103   1.388       .  A
C95         C112   1.418       .  A
C96         C111   1.418   1_565  A
C96         C104   1.388       .  A
C97         C109   1.415       .  A
C97         C105   1.387       .  A
C98         C112   1.414   1_545  A
C98         C106   1.388       .  A
C99         C107   1.387       .  A
C99         C110   1.416       .  A
C100        C108   1.387       .  A
C100        C111   1.415       .  A
C101        C102   1.373       .  A
C101        H113   1.082       .  S
C102        H114   1.082       .  S
C103        C104   1.374       .  A
C103        H115   1.082       .  S
C104        H116   1.082       .  S
C105        C106   1.371   1_565  A
C105        H117   1.082       .  S
C106        H118   1.082       .  S
C107        C108   1.371   1_565  A
C107        H119   1.082       .  S
C108        H120   1.082       .  S
C109        C167   1.456       .  S
C110        C166   1.455       .  S
C111        C171   1.454       .  S
C112        C169   1.452       .  S
N123        C128   1.354       .  A
N123        C127   1.354       .  A
N123        H155   1.037       .  S
N124        C131   1.352       .  A
N124        C132   1.352       .  A
N125        C130   1.354       .  A
N125        C129   1.354       .  A
N125        H156   1.038       .  S
N126        C133   1.352       .  A
N126        C134   1.351       .  A
C127        C135   1.387       .  A
C127        C143   1.416       .  A
C128        C144   1.416       .  A
C128        C136   1.387       .  A
C129        C137   1.387       .  A
C129        C146   1.415       .  A
C130        C145   1.416       .  A
C130        C138   1.388       .  A
C131        C143   1.413       .  A
C131        C139   1.387       .  A
C132        C146   1.412       .  A
C132        C140   1.387       .  A
C133        C141   1.387       .  A
C133        C144   1.413       .  A
C134        C142   1.387       .  A
C134        C145   1.413       .  A
C135        C136   1.376       .  A
C135        H147   1.082       .  S
C136        H148   1.082       .  S
C137        C138   1.377       .  A
C137        H149   1.082       .  S
C138        H150   1.082       .  S
C139        C140   1.374       .  A
C139        H151   1.083       .  S
C140        H152   1.083       .  S
C141        C142   1.374       .  A
C141        H153   1.083       .  S
C142        H154   1.083       .  S
C143        C161   1.453       .  S
C144        C157   1.453       .  S
C145        C160   1.453       .  S
C146        C164   1.453       .  S
C157        C158   1.208       .  T
C159        C160   1.208       .  T
C161        C162   1.208       .  T
C163        C164   1.208       .  T
C165        C526   1.207       .  T
C166        C525   1.208       .  T
C167        C528   1.209       .  T
C168        C527   1.210       .  T
C169        C170   1.207       .  T
C171        C172   1.208       .  T
C173        C174   1.207       .  T
C175        C176   1.207       .  T
C177        C178   1.208       .  T
C179        C180   1.206       .  T
N181        C186   1.355   1_455  A
N181        C185   1.355   1_455  A
N181        H213   1.033       .  S
N182        C189   1.351       .  A
N182        C190   1.350       .  A
N183        C188   1.354   1_455  A
N183        C187   1.354   1_455  A
N183        H214   1.036       .  S
N184        C191   1.353   1_655  A
N184        C192   1.352   1_655  A
C185        C193   1.387       .  A
C185        C201   1.418       .  A
C186        C202   1.418   1_655  A
C186        C194   1.387       .  A
C187        C195   1.388       .  A
C187        C204   1.415   1_655  A
C188        C203   1.415       .  A
C188        C196   1.388       .  A
C189        C201   1.413   1_455  A
C189        C197   1.388       .  A
C190        C204   1.411       .  A
C190        C198   1.388       .  A
C191        C199   1.387       .  A
C191        C202   1.416       .  A
C192        C200   1.387       .  A
C192        C203   1.414   1_455  A
C193        C194   1.376       .  A
C193        H205   1.082       .  S
C194        H206   1.082       .  S
C195        C196   1.375       .  A
C195        H207   1.082       .  S
C196        H208   1.082       .  S
C197        C198   1.373       .  A
C197        H209   1.083       .  S
C198        H210   1.083       .  S
C199        C200   1.373       .  A
C199        H211   1.082       .  S
C200        H212   1.083       .  S
C201        C359   1.452       .  S
C202        C357   1.456       .  S
C203        C356   1.451       .  S
C204        C353   1.447   1_455  S
O215        C226   1.291       .  A
O216        C227   1.291       .  A
O217        C228   1.291       .  A
O217      Zr1303   2.438       .  S
O218        C229   1.293       .  A
O218       Zr583   2.449       .  S
O219        C589   1.292       .  A
O220        C588   1.291       .  A
O221        C227   1.292       .  A
O221       Zr223   2.447       .  S
O222        C226   1.292       .  A
O222       Zr583   2.444   1_645  S
Zr223      O1297   2.447   1_455  S
Zr223       O578   2.441       .  S
Zr223       O582   2.437       .  S
Zr223       O224   2.340       .  S
Zr223      O1305   2.343   1_455  S
Zr223       O593   2.346       .  S
Zr223       O951   2.342   1_455  S
O225      Zr1303   2.344   1_545  S
O225       Zr791   2.344       .  S
O225       Zr432   2.342   1_545  S
C226        C360   1.436       .  S
C227        C358   1.440       .  S
C228        C352   1.438       .  S
C228        O580   1.293       .  A
C229        C350   1.442       .  S
C229        O579   1.293       .  A
H230        O231   0.964       .  S
O231       Zr943   2.343       .  S
O231       Zr790   2.344       .  S
H232        O233   0.965       .  S
O233       Zr583   2.348   1_545  S
O233       Zr433   2.346   1_545  S
O234        C257   1.291       .  A
O234       Zr250   2.439   1_556  S
O235        C258   1.290       .  A
O235       Zr251   2.436       .  S
O236        C259   1.291       .  A
O236       Zr252   2.442       .  S
O237        C260   1.290       .  A
O237       Zr253   2.438       .  S
O238        C261   1.293       .  A
O238       Zr613   2.451   1_546  S
O239        C262   1.292       .  A
O239       Zr612   2.448   1_545  S
O240        C263   1.291       .  A
O240       Zr974   2.443       .  S
O241        C264   1.292       .  A
O241       Zr254   2.445   1_455  S
O242        C263   1.290       .  A
O242       Zr252   2.435   1_556  S
O243        C264   1.291       .  A
O243       Zr253   2.440   1_556  S
O244        C259   1.292   1_556  A
O244       Zr970   2.445   1_556  S
O245        C262   1.292       .  A
O245       Zr971   2.447   1_554  S
O246        C261   1.291       .  A
O246       Zr251   2.445   1_455  S
O247        C260   1.292       .  A
O247       Zr250   2.443   1_455  S
O248        C257   1.291       .  A
O248       Zr254   2.441       .  S
O249        C258   1.291       .  A
O249       Zr614   2.438   1_545  S
Zr250       O964   2.443   1_554  S
Zr250       O771   2.345       .  S
Zr250       O976   2.342   1_554  S
Zr250       O268   2.345   1_654  S
Zr251       O965   2.439   1_556  S
Zr251       O765   2.344   1_556  S
Zr251       O255   2.342   1_655  S
Zr251       O986   2.346       .  S
Zr252       O599   2.442       .  S
Zr252       O405   2.336       .  S
Zr252       O256   2.342   1_554  S
Zr252       O626   2.345   1_554  S
Zr253       O598   2.442       .  S
Zr253       O413   2.341       .  S
Zr253       O615   2.340   1_554  S
Zr253       O268   2.343   1_554  S
Zr254       O960   2.440       .  S
Zr254       O609   2.436   1_655  S
Zr254       O615   2.341   1_655  S
Zr254       O976   2.342       .  S
Zr254       O268   2.342   1_655  S
Zr254      O1346   2.349       .  S
O255       Zr613   2.342   1_546  S
O255       Zr614   2.344   1_445  S
O256       Zr970   2.342   1_556  S
O256       Zr974   2.341       .  S
C257        C355   1.435       .  S
C258        C354   1.431       .  S
C259        C338   1.437       .  S
C260        C342   1.436       .  S
C261        C343   1.442       .  S
C262        C339   1.443       .  S
C263        C345   1.434       .  S
C264        C348   1.437       .  S
H265        O266   0.964       .  S
O266       Zr971   2.345       .  S
O266       Zr612   2.342   1_546  S
O266      Zr1334   2.344   1_545  S
H267        O268   0.965       .  S
N269        C274   1.353   1_545  A
N269        C273   1.353   1_545  A
N269        H301   1.039       .  S
N270        C277   1.352   1_565  A
N270        C278   1.352   1_565  A
N271        C276   1.354       .  A
N271        C275   1.354       .  A
N271        H302   1.039   1_565  S
N272        C279   1.351       .  A
N272        C280   1.351       .  A
C273        C281   1.387       .  A
C273        C289   1.413       .  A
C274        C290   1.414   1_565  A
C274        C282   1.388       .  A
C275        C283   1.387       .  A
C275        C292   1.415       .  A
C276        C291   1.415       .  A
C276        C284   1.388       .  A
C277        C289   1.411   1_545  A
C277        C285   1.386       .  A
C278        C292   1.413   1_545  A
C278        C286   1.387       .  A
C279        C287   1.387       .  A
C279        C290   1.412       .  A
C280        C288   1.387       .  A
C280        C291   1.413   1_545  A
C281        C282   1.378       .  A
C281        H293   1.082       .  S
C282        H294   1.082       .  S
C283        C284   1.378       .  A
C283        H295   1.082       .  S
C284        H296   1.083       .  S
C285        C286   1.375       .  A
C285        H297   1.082       .  S
C286        H298   1.082       .  S
C287        C288   1.376       .  A
C287        H299   1.083       .  S
C288        H300   1.082       .  S
C289        C347   1.453       .  S
C290        C346   1.452   1_545  S
C291        C351   1.453       .  S
C292        C349   1.456       .  S
N303        C308   1.353   1_554  A
N303        C307   1.354   1_554  A
N303        H335   1.036       .  S
N304        C311   1.353       .  A
N304        C312   1.353       .  A
N305        C310   1.355   1_554  A
N305        C309   1.355   1_554  A
N305        H336   1.033       .  S
N306        C313   1.353       .  A
N306        C314   1.354       .  A
C307        C315   1.388       .  A
C307        C323   1.415   1_556  A
C308        C324   1.416   1_556  A
C308        C316   1.389       .  A
C309        C317   1.388       .  A
C309        C326   1.419   1_556  A
C310        C325   1.420   1_556  A
C310        C318   1.388       .  A
C311        C323   1.414       .  A
C311        C319   1.387       .  A
C312        C326   1.417       .  A
C312        C320   1.387       .  A
C313        C321   1.387       .  A
C313        C324   1.416       .  A
C314        C322   1.387       .  A
C314        C325   1.418       .  A
C315        C316   1.375       .  A
C315        H327   1.083       .  S
C316        H328   1.083       .  S
C317        C318   1.376       .  A
C317        H329   1.083       .  S
C318        H330   1.082       .  S
C319        C320   1.373       .  A
C319        H331   1.083       .  S
C320        H332   1.082       .  S
C321        C322   1.373       .  A
C321        H333   1.082       .  S
C322        H334   1.082       .  S
C323        C341   1.452       .  S
C324        C337   1.453       .  S
C325        C340   1.458       .  S
C326        C344   1.457   1_554  S
C337        C338   1.208       .  T
C339        C340   1.211       .  T
C341        C342   1.207       .  T
C343        C344   1.210       .  T
C345        C706   1.206       .  T
C346        C705   1.208       .  T
C347        C708   1.208       .  T
C348        C707   1.207       .  T
C349        C350   1.210       .  T
C351        C352   1.208       .  T
C353        C354   1.204       .  T
C355        C356   1.206       .  T
C357        C358   1.209       .  T
C359        C360   1.207       .  T
N361        C366   1.355   1_655  A
N361        C365   1.355   1_655  A
N361        H393   1.036       .  S
N362        C369   1.353       .  A
N362        C370   1.353       .  A
N363        C368   1.353   1_655  A
N363        C367   1.353   1_655  A
N363        H394   1.035       .  S
N364        C371   1.354       .  A
N364        C372   1.354       .  A
C365        C373   1.387       .  A
C365        C381   1.416   1_455  A
C366        C382   1.418   1_455  A
C366        C374   1.388       .  A
C367        C375   1.388       .  A
C367        C384   1.414   1_455  A
C368        C383   1.415   1_455  A
C368        C376   1.388       .  A
C369        C381   1.414       .  A
C369        C377   1.387       .  A
C370        C384   1.414       .  A
C370        C378   1.387       .  A
C371        C379   1.387       .  A
C371        C382   1.416       .  A
C372        C380   1.387       .  A
C372        C383   1.415       .  A
C373        C374   1.375       .  A
C373        H385   1.082       .  S
C374        H386   1.082       .  S
C375        C376   1.375       .  A
C375        H387   1.083       .  S
C376        H388   1.083       .  S
C377        C378   1.371       .  A
C377        H389   1.082       .  S
C378        H390   1.082       .  S
C379        C380   1.372       .  A
C379        H391   1.082       .  S
C380        H392   1.082       .  S
C381        C539   1.455       .  S
C382        C537   1.458   1_655  S
C383        C536   1.452       .  S
C384        C533   1.450       .  S
O395        C406   1.292       .  A
O395       Zr611   2.444       .  S
O396        C407   1.293       .  A
O396       Zr610   2.452   1_454  S
O397        C408   1.290       .  A
O397       Zr763   2.438       .  S
O398        C409   1.292       .  A
O399       Zr613   2.439       .  S
O400       Zr612   2.436   1_545  S
O401        C407   1.291       .  A
O401       Zr403   2.442   1_455  S
O402        C406   1.292       .  A
Zr403       O757   2.448       .  S
Zr403       O404   2.342   1_655  S
Zr403       O765   2.343   1_565  S
Zr403      O1131   2.345       .  S
O404       Zr610   2.341   1_454  S
O404       Zr613   2.341       .  S
O405       Zr763   2.341       .  S
O405      Zr1331   2.339       .  S
C406        C540   1.439       .  S
C407        C538   1.443       .  S
C408        C532   1.432       .  S
C409        C530   1.438       .  S
H410        O411   0.964       .  S
O411      Zr1123   2.342       .  S
O411      Zr1330   2.342       .  S
O411       Zr612   2.345       .  S
H412        O413   0.964       .  S
O413       Zr611   2.345   1_455  S
O414        C437   1.290       .  A
O414       Zr430   2.437       .  S
O415        C438   1.290       .  A
O415       Zr431   2.436       .  S
O416        C439   1.291       .  A
O416       Zr432   2.442       .  S
O417        C440   1.290       .  A
O417       Zr433   2.437       .  S
O418        C441   1.290       .  A
O419        C442   1.291       .  A
O420        C443   1.292       .  A
O420      Zr1154   2.445       .  S
O421        C444   1.291       .  A
O421       Zr434   2.441   1_455  S
O422        C443   1.292       .  A
O422       Zr432   2.444       .  S
O423        C444   1.293       .  A
O423       Zr433   2.450       .  S
O424        C439   1.291       .  A
O424      Zr1150   2.443       .  S
O425        C442   1.291       .  A
O425      Zr1151   2.440       .  S
O426        C441   1.290       .  A
O426       Zr431   2.438       .  S
O427        C440   1.291       .  A
O427       Zr430   2.443   1_455  S
O428        C437   1.291       .  A
O428       Zr434   2.443       .  S
O429        C438   1.291       .  A
Zr430       O576   2.434   1_655  S
Zr430      O1144   2.447       .  S
Zr430       O584   2.344   1_655  S
Zr430      O1311   2.344       .  S
Zr430      O1156   2.340       .  S
Zr430       O448   2.344   1_655  S
Zr431       O575   2.439       .  S
Zr431      O1145   2.449   1_455  S
Zr431      O1305   2.340   1_455  S
Zr431       O593   2.346       .  S
Zr431       O435   2.342       .  S
Zr431      O1166   2.345   1_455  S
Zr432       O580   2.448       .  S
Zr432       O591   2.344       .  S
Zr432       O436   2.345       .  S
Zr433       O579   2.451       .  S
Zr433       O584   2.344       .  S
Zr433       O448   2.347       .  S
Zr434      O1140   2.443       .  S
Zr434      O1156   2.340       .  S
Zr434       O448   2.343   1_655  S
Zr434       O806   2.342   1_565  S
O436      Zr1150   2.343       .  S
O436      Zr1154   2.344       .  S
C437        C535   1.436       .  S
C438        C534   1.434       .  S
C439        C518   1.437       .  S
C440        C522   1.434       .  S
C441        C523   1.433       .  S
C442        C519   1.436       .  S
C443        C525   1.438       .  S
C444        C528   1.440       .  S
H445        O446   0.965       .  S
O446      Zr1151   2.344       .  S
O446       Zr794   2.347       .  S
H447        O448   0.964       .  S
N449        C454   1.355       .  A
N449        C453   1.356       .  A
N449        H481   1.038       .  S
N450        C457   1.353       .  A
N450        C458   1.352       .  A
N451        C456   1.354       .  A
N451        C455   1.355       .  A
N451        H482   1.036       .  S
N452        C459   1.351       .  A
N452        C460   1.351       .  A
C453        C461   1.387       .  A
C453        C469   1.416       .  A
C454        C470   1.416       .  A
C454        C462   1.387       .  A
C455        C463   1.387       .  A
C455        C472   1.417       .  A
C456        C471   1.417       .  A
C456        C464   1.388       .  A
C457        C469   1.413       .  A
C457        C465   1.386       .  A
C458        C472   1.414       .  A
C458        C466   1.387       .  A
C459        C467   1.388       .  A
C459        C470   1.412       .  A
C460        C468   1.388       .  A
C460        C471   1.413       .  A
C461        C462   1.375       .  A
C461        H473   1.082       .  S
C462        H474   1.082       .  S
C463        C464   1.376       .  A
C463        H475   1.082       .  S
C464        H476   1.083       .  S
C465        C466   1.372       .  A
C465        H477   1.082       .  S
C466        H478   1.082       .  S
C467        C468   1.373       .  A
C467        H479   1.083       .  S
C468        H480   1.083       .  S
C469        C527   1.457       .  S
C470        C526   1.452       .  S
C471        C531   1.449       .  S
C472        C529   1.454       .  S
N483        C488   1.355       .  A
N483        C487   1.354       .  A
N483        H515   1.032       .  S
N484        C491   1.351       .  A
N484        C492   1.351       .  A
N485        C490   1.355       .  A
N485        C489   1.354       .  A
N485        H516   1.033       .  S
N486        C493   1.352       .  A
N486        C494   1.351       .  A
C487        C495   1.388       .  A
C487        C503   1.419       .  A
C488        C504   1.419       .  A
C488        C496   1.387       .  A
C489        C497   1.388       .  A
C489        C506   1.418       .  A
C490        C505   1.419       .  A
C490        C498   1.388       .  A
C491        C503   1.415       .  A
C491        C499   1.388       .  A
C492        C506   1.415       .  A
C492        C500   1.388       .  A
C493        C501   1.388       .  A
C493        C504   1.414       .  A
C494        C502   1.388       .  A
C494        C505   1.414       .  A
C495        C496   1.375       .  A
C495        H507   1.082       .  S
C496        H508   1.082       .  S
C497        C498   1.375       .  A
C497        H509   1.082       .  S
C498        H510   1.082       .  S
C499        C500   1.373       .  A
C499        H511   1.083       .  S
C500        H512   1.083       .  S
C501        C502   1.373       .  A
C501        H513   1.083       .  S
C502        H514   1.083       .  S
C503        C521   1.450       .  S
C504        C517   1.454       .  S
C505        C520   1.452       .  S
C506        C524   1.450       .  S
C517        C518   1.208       .  T
C519        C520   1.207       .  T
C521        C522   1.206       .  T
C523        C524   1.205       .  T
C529        C530   1.208       .  T
C531        C532   1.205       .  T
C533        C534   1.205   1_655  T
C535        C536   1.207       .  T
C537        C538   1.211       .  T
C539        C540   1.209       .  T
N541        C546   1.356   1_655  A
N541        C545   1.355   1_655  A
N541        H573   1.037       .  S
N542        C549   1.350   1_455  A
N542        C550   1.350       .  A
N543        C548   1.358       .  A
N543        C547   1.357       .  A
N543        H574   1.037       .  S
N544        C551   1.351   1_455  A
N544        C552   1.351       .  A
C545        C553   1.387       .  A
C545        C561   1.415   1_455  A
C546        C562   1.415   1_455  A
C546        C554   1.387       .  A
C547        C555   1.387   1_455  A
C547        C564   1.418       .  A
C548        C563   1.419       .  A
C548        C556   1.387   1_455  A
C549        C561   1.411       .  A
C549        C557   1.387   1_655  A
C550        C564   1.412       .  A
C550        C558   1.388       .  A
C551        C559   1.387       .  A
C551        C562   1.412       .  A
C552        C560   1.387   1_455  A
C552        C563   1.413       .  A
C553        C554   1.371       .  A
C553        H565   1.082       .  S
C554        H566   1.082       .  S
C555        C556   1.372       .  A
C555        H567   1.082       .  S
C556        H568   1.082       .  S
C557        C558   1.370       .  A
C557        H569   1.083   1_455  S
C558        H570   1.082       .  S
C559        C560   1.370       .  A
C559        H571   1.082       .  S
C560        H572   1.082       .  S
C561        C719   1.449   1_655  S
C562        C717   1.451   1_655  S
C563        C716   1.456       .  S
C564        C713   1.451       .  S
O575        C586   1.291       .  A
O576        C587   1.290       .  A
O577        C588   1.292       .  A
O577       Zr943   2.444       .  S
O578        C589   1.291       .  A
O581        C587   1.292       .  A
O581       Zr583   2.446       .  S
O582        C586   1.290       .  A
Zr583       O937   2.447   1_455  S
Zr583       O584   2.343       .  S
Zr583       O945   2.343   1_465  S
Zr583      O1311   2.345   1_455  S
O585       Zr943   2.345       .  S
O585      Zr1151   2.344       .  S
C586        C720   1.431       .  S
C587        C718   1.434       .  S
C588        C712   1.435       .  S
C589        C710   1.439       .  S
H590        O591   0.964       .  S
O591      Zr1303   2.342       .  S
O591      Zr1150   2.340       .  S
H592        O593   0.964       .  S
O594        C617   1.292   1_655  A
O594       Zr610   2.449       .  S
O595        C618   1.292       .  A
O595       Zr611   2.444   1_456  S
O596        C619   1.292       .  A
O596       Zr612   2.447       .  S
O597        C620   1.292       .  A
O597       Zr613   2.447       .  S
O598        C621   1.291       .  A
O599        C622   1.291       .  A
O600        C623   1.291       .  A
O600      Zr1334   2.444       .  S
O601        C624   1.293       .  A
O601       Zr614   2.451   1_445  S
O602        C623   1.291       .  A
O602       Zr612   2.443   1_556  S
O603        C624   1.290   1_565  A
O603       Zr613   2.438   1_556  S
O604        C619   1.292       .  A
O604      Zr1330   2.446       .  S
O605        C622   1.292       .  A
O605      Zr1331   2.443       .  S
O606        C621   1.291       .  A
O606       Zr611   2.441   1_455  S
O607        C620   1.292       .  A
O607       Zr610   2.443   1_454  S
O608        C617   1.292       .  A
O608       Zr614   2.444   1_455  S
O609        C618   1.290       .  A
Zr610      O1324   2.446       .  S
Zr610      O1131   2.346   1_556  S
Zr610      O1336   2.342       .  S
Zr610       O628   2.347   1_655  S
Zr611      O1325   2.446       .  S
Zr611      O1125   2.339       .  S
Zr611       O615   2.343   1_654  S
Zr611      O1346   2.344   1_554  S
Zr612       O616   2.344   1_554  S
Zr613       O628   2.347   1_554  S
Zr614      O1320   2.451       .  S
Zr614      O1336   2.344       .  S
Zr614       O628   2.346   1_655  S
Zr614       O986   2.346   1_565  S
O616      Zr1330   2.346   1_556  S
O616      Zr1334   2.344       .  S
C617        C715   1.440       .  S
C618        C714   1.434       .  S
C619        C698   1.442       .  S
C620        C702   1.440       .  S
C621        C703   1.436       .  S
C622        C699   1.438       .  S
C623        C705   1.437       .  S
C624        C708   1.438   1_545  S
H625        O626   0.964       .  S
O626      Zr1331   2.343   1_556  S
O626       Zr974   2.345       .  S
H627        O628   0.965       .  S
N629        C634   1.355       .  A
N629        C633   1.355       .  A
N629        H661   1.034       .  S
N630        C637   1.352       .  A
N630        C638   1.353       .  A
N631        C636   1.354       .  A
N631        C635   1.355       .  A
N631        H662   1.032       .  S
N632        C639   1.352       .  A
N632        C640   1.352       .  A
C633        C641   1.388       .  A
C633        C649   1.417       .  A
C634        C650   1.417       .  A
C634        C642   1.388       .  A
C635        C643   1.388       .  A
C635        C652   1.418       .  A
C636        C651   1.419       .  A
C636        C644   1.388       .  A
C637        C649   1.415       .  A
C637        C645   1.387       .  A
C638        C652   1.416       .  A
C638        C646   1.387       .  A
C639        C647   1.388       .  A
C639        C650   1.415       .  A
C640        C648   1.388       .  A
C640        C651   1.416       .  A
C641        C642   1.374       .  A
C641        H653   1.082       .  S
C642        H654   1.082       .  S
C643        C644   1.375       .  A
C643        H655   1.082       .  S
C644        H656   1.082       .  S
C645        C646   1.372       .  A
C645        H657   1.082       .  S
C646        H658   1.082       .  S
C647        C648   1.372       .  A
C647        H659   1.083       .  S
C648        H660   1.083       .  S
C649        C707   1.453       .  S
C650        C706   1.451       .  S
C651        C711   1.452       .  S
C652        C709   1.455       .  S
N663        C668   1.355   1_556  A
N663        C667   1.354   1_556  A
N663        H695   1.034       .  S
N664        C671   1.354   1_554  A
N664        C672   1.353   1_554  A
N665        C670   1.354   1_556  A
N665        C669   1.354   1_556  A
N665        H696   1.034       .  S
N666        C673   1.354       .  A
N666        C674   1.353       .  A
C667        C675   1.388       .  A
C667        C683   1.419       .  A
C668        C684   1.419   1_554  A
C668        C676   1.388       .  A
C669        C677   1.389       .  A
C669        C686   1.418   1_554  A
C670        C685   1.418   1_554  A
C670        C678   1.389       .  A
C671        C683   1.417   1_556  A
C671        C679   1.387       .  A
C672        C686   1.416       .  A
C672        C680   1.387       .  A
C673        C681   1.387       .  A
C673        C684   1.417       .  A
C674        C682   1.387       .  A
C674        C685   1.416       .  A
C675        C676   1.376       .  A
C675        H687   1.082       .  S
C676        H688   1.082       .  S
C677        C678   1.377       .  A
C677        H689   1.083       .  S
C678        H690   1.083       .  S
C679        C680   1.372       .  A
C679        H691   1.082       .  S
C680        H692   1.082       .  S
C681        C682   1.373       .  A
C681        H693   1.082       .  S
C682        H694   1.082       .  S
C683        C701   1.456       .  S
C684        C697   1.458   1_556  S
C685        C700   1.453   1_556  S
C686        C704   1.453   1_556  S
C697        C698   1.211       .  T
C699        C700   1.208       .  T
C701        C702   1.209       .  T
C703        C704   1.207       .  T
C709        C710   1.208       .  T
C711        C712   1.207       .  T
C713        C714   1.206       .  T
C715        C716   1.209       .  T
C717        C718   1.205       .  T
C719        C720   1.204       .  T
N721        C726   1.353       .  A
N721        C725   1.353       .  A
N721        H753   1.036       .  S
N722        C729   1.353       .  A
N722        C730   1.352       .  A
N723        C728   1.353       .  A
N723        C727   1.354       .  A
N723        H754   1.039       .  S
N724        C731   1.353       .  A
N724        C732   1.352       .  A
C725        C733   1.388       .  A
C725        C741   1.415       .  A
C726        C742   1.416       .  A
C726        C734   1.388       .  A
C727        C735   1.388       .  A
C727        C744   1.414       .  A
C728        C743   1.414       .  A
C728        C736   1.388       .  A
C729        C741   1.415       .  A
C729        C737   1.387       .  A
C730        C744   1.412       .  A
C730        C738   1.386       .  A
C731        C739   1.387       .  A
C731        C742   1.415       .  A
C732        C740   1.387       .  A
C732        C743   1.413       .  A
C733        C734   1.377       .  A
C733        H745   1.083       .  S
C734        H746   1.082       .  S
C735        C736   1.377       .  A
C735        H747   1.082       .  S
C736        H748   1.082       .  S
C737        C738   1.374       .  A
C737        H749   1.082       .  S
C738        H750   1.082       .  S
C739        C740   1.374       .  A
C739        H751   1.082       .  S
C740        H752   1.082       .  S
C741        C899   1.453       .  S
C742        C897   1.453       .  S
C743        C896   1.452       .  S
C744        C893   1.453       .  S
O755        C766   1.293       .  A
O755       Zr971   2.449   1_554  S
O756        C767   1.291       .  A
O756       Zr970   2.441       .  S
O757        C768   1.292       .  A
O758        C769   1.291       .  A
O758      Zr1123   2.446       .  S
O759       C1129   1.292       .  A
O759       Zr973   2.448       .  S
O760       C1128   1.292       .  A
O760       Zr972   2.445       .  S
O761        C767   1.292       .  A
O761       Zr763   2.449       .  S
O762        C766   1.291       .  A
O762      Zr1123   2.439   1_545  S
Zr763      O1118   2.440       .  S
Zr763      O1122   2.445       .  S
Zr763       O764   2.344       .  S
Zr763      O1133   2.344       .  S
O764       Zr970   2.345       .  S
O764       Zr973   2.345       .  S
O765      Zr1332   2.345   1_544  S
C766        C900   1.438       .  S
C767        C898   1.438       .  S
C768        C892   1.445       .  S
C768       O1120   1.293       .  A
C769        C890   1.442       .  S
C769       O1119   1.293       .  A
H770        O771   0.964       .  S
O771       Zr972   2.348       .  S
H772        O773   0.964       .  S
O773      Zr1123   2.344   1_545  S
O773       Zr971   2.347   1_554  S
O773      Zr1333   2.344   1_545  S
O774        C797   1.292       .  A
O774       Zr790   2.445       .  S
O775        C798   1.291       .  A
O775       Zr791   2.442       .  S
O776        C799   1.292       .  A
O776       Zr792   2.446       .  S
O777        C800   1.291       .  A
O777       Zr793   2.441       .  S
O778        C801   1.290       .  A
O778      Zr1153   2.438   1_545  S
O779        C802   1.292       .  A
O779      Zr1152   2.444   1_545  S
O780        C803   1.292       .  A
O781        C804   1.292       .  A
O781       Zr794   2.444       .  S
O782        C803   1.290       .  A
O782       Zr792   2.435       .  S
O783        C804   1.290       .  A
O783       Zr793   2.439       .  S
O784        C799   1.292       .  A
O785        C802   1.292       .  A
O786        C801   1.292       .  A
O786       Zr791   2.445       .  S
O787        C800   1.292       .  A
O787       Zr790   2.446       .  S
O788        C797   1.290       .  A
O788       Zr794   2.438       .  S
O789        C798   1.291       .  A
O789      Zr1154   2.442   1_545  S
Zr790       O936   2.434       .  S
Zr790       O944   2.342       .  S
Zr790       O808   2.340       .  S
Zr791       O935   2.436       .  S
Zr791       O953   2.346       .  S
Zr791       O795   2.337       .  S
Zr792       O940   2.436       .  S
Zr792      O1139   2.449       .  S
Zr792      O1305   2.340       .  S
Zr792       O951   2.348       .  S
Zr792       O796   2.342       .  S
Zr792      O1166   2.345       .  S
Zr793       O939   2.440       .  S
Zr793      O1138   2.443       .  S
Zr793       O944   2.339       .  S
Zr793      O1313   2.341       .  S
Zr793      O1155   2.340       .  S
Zr793       O808   2.345       .  S
Zr794      O1149   2.435       .  S
Zr794      O1155   2.340       .  S
Zr794       O808   2.342       .  S
O795      Zr1153   2.340   1_545  S
O795      Zr1154   2.341   1_545  S
C797        C895   1.437       .  S
C798        C894   1.438       .  S
C799        C878   1.441       .  S
C800        C882   1.439       .  S
C801        C883   1.437       .  S
C802        C879   1.440       .  S
C803        C885   1.436       .  S
C804        C888   1.437       .  S
H805        O806   0.964       .  S
O806      Zr1152   2.343   1_545  S
H807        O808   0.964       .  S
N809        C814   1.353   1_565  A
N809        C813   1.354   1_565  A
N809        H841   1.040       .  S
N810        C817   1.351       .  A
N810        C818   1.352       .  A
N811        C816   1.354   1_565  A
N811        C815   1.354   1_565  A
N811        H842   1.040       .  S
N812        C819   1.353       .  A
N812        C820   1.353       .  A
C813        C821   1.388       .  A
C813        C829   1.416   1_545  A
C814        C830   1.414   1_545  A
C814        C822   1.388       .  A
C815        C823   1.387       .  A
C815        C832   1.414   1_545  A
C816        C831   1.414   1_545  A
C816        C824   1.387       .  A
C817        C829   1.413       .  A
C817        C825   1.387       .  A
C818        C832   1.414       .  A
C818        C826   1.387       .  A
C819        C827   1.387       .  A
C819        C830   1.414       .  A
C820        C828   1.386       .  A
C820        C831   1.413       .  A
C821        C822   1.379       .  A
C821        H833   1.082       .  S
C822        H834   1.083       .  S
C823        C824   1.378       .  A
C823        H835   1.082       .  S
C824        H836   1.082       .  S
C825        C826   1.376       .  A
C825        H837   1.083       .  S
C826        H838   1.082       .  S
C827        C828   1.376       .  A
C827        H839   1.082       .  S
C828        H840   1.082       .  S
C829        C887   1.454   1_565  S
C830        C886   1.454       .  S
C831        C891   1.458       .  S
C832        C889   1.456       .  S
N843        C848   1.355       .  A
N843        C847   1.355       .  A
N843        H875   1.036       .  S
N844        C851   1.354       .  A
N844        C852   1.354       .  A
N845        C850   1.354       .  A
N845        C849   1.354       .  A
N845        H876   1.035       .  S
N846        C853   1.354       .  A
N846        C854   1.354       .  A
C847        C855   1.388       .  A
C847        C863   1.417       .  A
C848        C864   1.417       .  A
C848        C856   1.388       .  A
C849        C857   1.388       .  A
C849        C866   1.416       .  A
C850        C865   1.417       .  A
C850        C858   1.389       .  A
C851        C863   1.415       .  A
C851        C859   1.387       .  A
C852        C866   1.415       .  A
C852        C860   1.387       .  A
C853        C861   1.387       .  A
C853        C864   1.416       .  A
C854        C862   1.387       .  A
C854        C865   1.417       .  A
C855        C856   1.376       .  A
C855        H867   1.083       .  S
C856        H868   1.082       .  S
C857        C858   1.376       .  A
C857        H869   1.083       .  S
C858        H870   1.083       .  S
C859        C860   1.372       .  A
C859        H871   1.082       .  S
C860        H872   1.082       .  S
C861        C862   1.373       .  A
C861        H873   1.082       .  S
C862        H874   1.082       .  S
C863        C881   1.455       .  S
C864        C877   1.457       .  S
C865        C880   1.456       .  S
C866        C884   1.453       .  S
C877        C878   1.210       .  T
C879        C880   1.209       .  T
C881        C882   1.209       .  T
C883        C884   1.207       .  T
C885       C1246   1.207       .  T
C886       C1245   1.209       .  T
C887       C1248   1.209       .  T
C888       C1247   1.207       .  T
C889        C890   1.210       .  T
C891        C892   1.212       .  T
C893        C894   1.208       .  T
C895        C896   1.207       .  T
C897        C898   1.208       .  T
C899        C900   1.208       .  T
N901        C906   1.353       .  A
N901        C905   1.354       .  A
N901        H933   1.034       .  S
N902        C909   1.353       .  A
N902        C910   1.353       .  A
N903        C908   1.355       .  A
N903        C907   1.356       .  A
N903        H934   1.035       .  S
N904        C911   1.351       .  A
N904        C912   1.352       .  A
C905        C913   1.387       .  A
C905        C921   1.416       .  A
C906        C922   1.416       .  A
C906        C914   1.388       .  A
C907        C915   1.387       .  A
C907        C924   1.419       .  A
C908        C923   1.418       .  A
C908        C916   1.388       .  A
C909        C921   1.414       .  A
C909        C917   1.387       .  A
C910        C924   1.415       .  A
C910        C918   1.387       .  A
C911        C919   1.388       .  A
C911        C922   1.414       .  A
C912        C920   1.388       .  A
C912        C923   1.414       .  A
C913        C914   1.374       .  A
C913        H925   1.082       .  S
C914        H926   1.082       .  S
C915        C916   1.375       .  A
C915        H927   1.082       .  S
C916        H928   1.082       .  S
C917        C918   1.372       .  A
C917        H929   1.082       .  S
C918        H930   1.082       .  S
C919        C920   1.372       .  A
C919        H931   1.083       .  S
C920        H932   1.083       .  S
C921       C1079   1.453       .  S
C922       C1077   1.448       .  S
C923       C1076   1.452       .  S
C924       C1073   1.456       .  S
O935        C946   1.290       .  A
O936        C947   1.290       .  A
O937        C948   1.293       .  A
O938        C949   1.291       .  A
O938      Zr1303   2.440       .  S
O939       C1309   1.291       .  A
O940       C1308   1.290       .  A
O941        C947   1.290       .  A
O941       Zr943   2.438       .  S
O942        C946   1.293       .  A
O942      Zr1303   2.449   1_545  S
Zr943      O1298   2.445       .  S
Zr943      O1302   2.444       .  S
Zr943       O944   2.340       .  S
Zr943      O1313   2.340       .  S
O945      Zr1152   2.342   1_545  S
C946       C1080   1.437       .  S
C947       C1078   1.431       .  S
C948       C1072   1.438       .  S
C948       O1300   1.291       .  A
C949       C1070   1.434       .  S
C949       O1299   1.291       .  A
H950        O951   0.964       .  S
H952        O953   0.965       .  S
O953      Zr1303   2.345   1_545  S
O953      Zr1153   2.342   1_545  S
O954        C977   1.291       .  A
O954       Zr970   2.442   1_556  S
O955        C978   1.292       .  A
O955       Zr971   2.444       .  S
O956        C979   1.291       .  A
O956       Zr972   2.440   1_556  S
O957        C980   1.291       .  A
O957       Zr973   2.438   1_556  S
O958        C981   1.291       .  A
O958      Zr1333   2.442   1_545  S
O959        C982   1.291       .  A
O959      Zr1332   2.443   1_544  S
O960        C983   1.291       .  A
O961        C984   1.292       .  A
O961       Zr974   2.445       .  S
O962        C983   1.292       .  A
O962       Zr972   2.445   1_556  S
O963        C984   1.292       .  A
O963       Zr973   2.446   1_556  S
O964        C979   1.291       .  A
O965        C982   1.291       .  A
O966        C981   1.291   1_556  A
O966       Zr971   2.441       .  S
O967        C980   1.293       .  A
O967       Zr970   2.449   1_556  S
O968        C977   1.291       .  A
O968       Zr974   2.441       .  S
O969        C978   1.293       .  A
O969      Zr1334   2.452   1_545  S
Zr970       O988   2.342   1_554  S
Zr971       O975   2.347       .  S
Zr972      O1319   2.440       .  S
Zr972      O1125   2.339       .  S
Zr972       O976   2.343   1_554  S
Zr972      O1346   2.346   1_554  S
Zr973      O1318   2.440   1_554  S
Zr973      O1133   2.343       .  S
Zr973      O1335   2.343   1_554  S
Zr973       O988   2.344   1_554  S
Zr974      O1329   2.440       .  S
Zr974      O1335   2.343       .  S
Zr974       O988   2.342       .  S
O975      Zr1333   2.347   1_546  S
O975      Zr1334   2.347   1_545  S
C977       C1075   1.436       .  S
C978       C1074   1.441       .  S
C979       C1058   1.435       .  S
C980       C1062   1.437       .  S
C981       C1063   1.435       .  S
C982       C1059   1.435       .  S
C983       C1065   1.436       .  S
C984       C1068   1.440       .  S
H985        O986   0.965       .  S
O986      Zr1332   2.347   1_545  S
H987        O988   0.964       .  S
N989        C994   1.355   1_545  A
N989        C993   1.354   1_545  A
N989       H1021   1.037       .  S
N990        C997   1.350   1_565  A
N990        C998   1.350   1_565  A
N991        C996   1.355   1_545  A
N991        C995   1.354   1_545  A
N991       H1022   1.036       .  S
N992        C999   1.351   1_565  A
N992       C1000   1.351   1_565  A
C993       C1001   1.387       .  A
C993       C1009   1.415       .  A
C994       C1010   1.417       .  A
C994       C1002   1.387       .  A
C995       C1003   1.388       .  A
C995       C1012   1.418       .  A
C996       C1011   1.418   1_565  A
C996       C1004   1.388       .  A
C997       C1009   1.411   1_545  A
C997       C1005   1.388       .  A
C998       C1012   1.412   1_545  A
C998       C1006   1.388       .  A
C999       C1007   1.387       .  A
C999       C1010   1.412   1_545  A
C1000      C1008   1.388       .  A
C1000      C1011   1.413       .  A
C1001      C1002   1.377       .  A
C1001      H1013   1.082       .  S
C1002      H1014   1.082       .  S
C1003      C1004   1.377       .  A
C1003      H1015   1.082       .  S
C1004      H1016   1.082       .  S
C1005      C1006   1.374       .  A
C1005      H1017   1.083       .  S
C1006      H1018   1.083       .  S
C1007      C1008   1.374       .  A
C1007      H1019   1.083       .  S
C1008      H1020   1.083       .  S
C1009      C1067   1.449       .  S
C1010      C1066   1.455       .  S
C1011      C1071   1.453   1_545  S
C1012      C1069   1.450       .  S
N1023      C1028   1.354   1_556  A
N1023      C1027   1.354   1_556  A
N1023      H1055   1.036       .  S
N1024      C1031   1.353       .  A
N1024      C1032   1.352       .  A
N1025      C1030   1.354   1_556  A
N1025      C1029   1.353   1_556  A
N1025      H1056   1.035       .  S
N1026      C1033   1.352       .  A
N1026      C1034   1.352       .  A
C1027      C1035   1.387       .  A
C1027      C1043   1.415   1_554  A
C1028      C1044   1.415   1_554  A
C1028      C1036   1.388       .  A
C1029      C1037   1.389       .  A
C1029      C1046   1.416       .  A
C1030      C1045   1.416   1_554  A
C1030      C1038   1.388       .  A
C1031      C1043   1.414       .  A
C1031      C1039   1.387       .  A
C1032      C1046   1.415   1_556  A
C1032      C1040   1.388       .  A
C1033      C1041   1.387       .  A
C1033      C1044   1.413       .  A
C1034      C1042   1.387       .  A
C1034      C1045   1.413       .  A
C1035      C1036   1.375       .  A
C1035      H1047   1.082       .  S
C1036      H1048   1.082       .  S
C1037      C1038   1.376       .  A
C1037      H1049   1.083       .  S
C1038      H1050   1.083       .  S
C1039      C1040   1.372       .  A
C1039      H1051   1.082       .  S
C1040      H1052   1.082       .  S
C1041      C1042   1.373       .  A
C1041      H1053   1.082       .  S
C1042      H1054   1.082       .  S
C1043      C1061   1.453       .  S
C1044      C1057   1.451       .  S
C1045      C1060   1.451   1_556  S
C1046      C1064   1.451       .  S
C1057      C1058   1.206       .  T
C1059      C1060   1.206       .  T
C1061      C1062   1.208       .  T
C1063      C1064   1.206       .  T
C1065      C1426   1.207       .  T
C1066      C1425   1.209       .  T
C1067      C1428   1.206       .  T
C1068      C1427   1.209       .  T
C1069      C1070   1.206       .  T
C1071      C1072   1.208       .  T
C1073      C1074   1.210       .  T
C1075      C1076   1.207       .  T
C1077      C1078   1.204       .  T
C1079      C1080   1.208       .  T
N1081      C1086   1.356       .  A
N1081      C1085   1.355       .  A
N1081      H1113   1.035       .  S
N1082      C1089   1.351       .  A
N1082      C1090   1.352       .  A
N1083      C1088   1.354       .  A
N1083      C1087   1.354       .  A
N1083      H1114   1.035       .  S
N1084      C1091   1.352       .  A
N1084      C1092   1.351       .  A
C1085      C1093   1.387       .  A
C1085      C1101   1.419       .  A
C1086      C1102   1.419       .  A
C1086      C1094   1.387       .  A
C1087      C1095   1.388       .  A
C1087      C1104   1.417       .  A
C1088      C1103   1.417       .  A
C1088      C1096   1.387       .  A
C1089      C1101   1.415       .  A
C1089      C1097   1.388       .  A
C1090      C1104   1.413       .  A
C1090      C1098   1.387       .  A
C1091      C1099   1.387       .  A
C1091      C1102   1.413       .  A
C1092      C1100   1.388       .  A
C1092      C1103   1.413       .  A
C1093      C1094   1.376       .  A
C1093      H1105   1.082       .  S
C1094      H1106   1.082       .  S
C1095      C1096   1.374       .  A
C1095      H1107   1.082       .  S
C1096      H1108   1.082       .  S
C1097      C1098   1.372       .  A
C1097      H1109   1.082       .  S
C1098      H1110   1.083       .  S
C1099      C1100   1.371       .  A
C1099      H1111   1.082       .  S
C1100      H1112   1.083       .  S
C1101      C1259   1.455       .  S
C1102      C1257   1.455       .  S
C1103      C1256   1.449       .  S
C1104      C1253   1.450       .  S
O1115      C1126   1.292       .  A
O1115     Zr1331   2.445       .  S
O1116      C1127   1.292       .  A
O1116     Zr1330   2.449       .  S
O1117      C1128   1.291       .  A
O1118      C1129   1.291       .  A
O1119     Zr1333   2.450       .  S
O1120     Zr1332   2.452   1_554  S
O1121      C1127   1.291       .  A
O1121     Zr1123   2.441       .  S
O1122      C1126   1.292       .  A
Zr1123     O1124   2.343       .  S
O1124     Zr1330   2.344       .  S
O1124     Zr1333   2.344       .  S
C1126      C1260   1.439       .  S
C1127      C1258   1.440       .  S
C1128      C1252   1.438       .  S
C1129      C1250   1.438       .  S
H1130      O1131   0.964       .  S
O1131     Zr1332   2.343   1_554  S
H1132      O1133   0.964       .  S
O1133     Zr1331   2.345       .  S
O1134      C1157   1.290       .  A
O1134     Zr1150   2.434       .  S
O1135      C1158   1.291       .  A
O1135     Zr1151   2.438       .  S
O1136      C1159   1.292       .  A
O1136     Zr1152   2.446       .  S
O1137      C1160   1.291       .  A
O1137     Zr1153   2.440       .  S
O1138      C1161   1.291       .  A
O1139      C1162   1.292       .  A
O1140      C1163   1.291       .  A
O1141      C1164   1.292       .  A
O1141     Zr1154   2.444   1_545  S
O1142      C1163   1.292       .  A
O1142     Zr1152   2.444       .  S
O1143      C1164   1.292       .  A
O1143     Zr1153   2.444   1_545  S
O1144      C1159   1.292       .  A
O1145      C1162   1.293       .  A
O1146      C1161   1.290       .  A
O1146     Zr1151   2.436       .  S
O1147      C1160   1.290       .  A
O1147     Zr1150   2.436       .  S
O1148      C1157   1.292       .  A
O1148     Zr1154   2.444       .  S
O1149      C1158   1.290       .  A
Zr1150     O1296   2.443       .  S
Zr1150     O1304   2.341       .  S
Zr1150     O1168   2.345       .  S
Zr1151     O1295   2.441       .  S
Zr1151     O1313   2.341       .  S
Zr1151     O1155   2.343       .  S
Zr1152     O1300   2.440       .  S
Zr1152     O1311   2.346       .  S
Zr1152     O1156   2.340       .  S
Zr1153     O1299   2.442       .  S
Zr1153     O1304   2.342       .  S
Zr1153     O1168   2.344       .  S
Zr1154     O1168   2.345       .  S
C1157      C1255   1.433       .  S
C1158      C1254   1.433       .  S
C1159      C1238   1.441       .  S
C1160      C1242   1.433       .  S
C1161      C1243   1.435       .  S
C1162      C1239   1.443       .  S
C1163      C1245   1.439       .  S
C1164      C1248   1.439       .  S
H1165      O1166   0.965       .  S
H1167      O1168   0.964       .  S
N1169      C1174   1.354       .  A
N1169      C1173   1.355       .  A
N1169      H1201   1.037       .  S
N1170      C1177   1.351       .  A
N1170      C1178   1.351       .  A
N1171      C1176   1.355       .  A
N1171      C1175   1.355       .  A
N1171      H1202   1.036       .  S
N1172      C1179   1.352       .  A
N1172      C1180   1.352       .  A
C1173      C1181   1.387       .  A
C1173      C1189   1.416       .  A
C1174      C1190   1.416       .  A
C1174      C1182   1.388       .  A
C1175      C1183   1.387       .  A
C1175      C1192   1.417       .  A
C1176      C1191   1.417       .  A
C1176      C1184   1.387       .  A
C1177      C1189   1.412       .  A
C1177      C1185   1.387       .  A
C1178      C1192   1.413       .  A
C1178      C1186   1.388       .  A
C1179      C1187   1.388       .  A
C1179      C1190   1.413       .  A
C1180      C1188   1.387       .  A
C1180      C1191   1.414       .  A
C1181      C1182   1.376       .  A
C1181      H1193   1.082       .  S
C1182      H1194   1.082       .  S
C1183      C1184   1.376       .  A
C1183      H1195   1.082       .  S
C1184      H1196   1.082       .  S
C1185      C1186   1.373       .  A
C1185      H1197   1.083       .  S
C1186      H1198   1.082       .  S
C1187      C1188   1.373       .  A
C1187      H1199   1.083       .  S
C1188      H1200   1.083       .  S
C1189      C1247   1.453       .  S
C1190      C1246   1.452       .  S
C1191      C1251   1.454       .  S
C1192      C1249   1.454       .  S
N1203      C1208   1.354       .  A
N1203      C1207   1.352       .  A
N1203      H1235   1.033       .  S
N1204      C1211   1.353       .  A
N1204      C1212   1.353       .  A
N1205      C1210   1.354       .  A
N1205      C1209   1.354       .  A
N1205      H1236   1.034       .  S
N1206      C1213   1.354       .  A
N1206      C1214   1.354       .  A
C1207      C1215   1.389       .  A
C1207      C1223   1.417       .  A
C1208      C1224   1.418       .  A
C1208      C1216   1.388       .  A
C1209      C1217   1.388       .  A
C1209      C1226   1.418       .  A
C1210      C1225   1.419       .  A
C1210      C1218   1.388       .  A
C1211      C1223   1.416       .  A
C1211      C1219   1.388       .  A
C1212      C1226   1.416       .  A
C1212      C1220   1.388       .  A
C1213      C1221   1.386       .  A
C1213      C1224   1.417       .  A
C1214      C1222   1.386       .  A
C1214      C1225   1.417       .  A
C1215      C1216   1.375       .  A
C1215      H1227   1.083       .  S
C1216      H1228   1.082       .  S
C1217      C1218   1.377       .  A
C1217      H1229   1.082       .  S
C1218      H1230   1.082       .  S
C1219      C1220   1.372       .  A
C1219      H1231   1.083       .  S
C1220      H1232   1.083       .  S
C1221      C1222   1.372       .  A
C1221      H1233   1.082       .  S
C1222      H1234   1.082       .  S
C1223      C1241   1.449       .  S
C1224      C1237   1.457       .  S
C1225      C1240   1.458       .  S
C1226      C1244   1.452       .  S
C1237      C1238   1.210       .  T
C1239      C1240   1.211       .  T
C1241      C1242   1.205       .  T
C1243      C1244   1.207       .  T
C1249      C1250   1.208       .  T
C1251      C1252   1.208       .  T
C1253      C1254   1.205       .  T
C1255      C1256   1.205       .  T
C1257      C1258   1.209       .  T
C1259      C1260   1.209       .  T
N1261      C1266   1.353       .  A
N1261      C1265   1.353       .  A
N1261      H1293   1.040       .  S
N1262      C1269   1.351       .  A
N1262      C1270   1.351       .  A
N1263      C1268   1.354       .  A
N1263      C1267   1.354       .  A
N1263      H1294   1.039       .  S
N1264      C1271   1.353       .  A
N1264      C1272   1.353       .  A
C1265      C1273   1.387       .  A
C1265      C1281   1.412       .  A
C1266      C1282   1.413       .  A
C1266      C1274   1.388       .  A
C1267      C1275   1.387       .  A
C1267      C1284   1.414       .  A
C1268      C1283   1.415       .  A
C1268      C1276   1.387       .  A
C1269      C1281   1.409       .  A
C1269      C1277   1.386       .  A
C1270      C1284   1.411       .  A
C1270      C1278   1.387       .  A
C1271      C1279   1.386       .  A
C1271      C1282   1.414       .  A
C1272      C1280   1.386       .  A
C1272      C1283   1.415       .  A
C1273      C1274   1.378       .  A
C1273      H1285   1.083       .  S
C1274      H1286   1.082       .  S
C1275      C1276   1.378       .  A
C1275      H1287   1.083       .  S
C1276      H1288   1.082       .  S
C1277      C1278   1.375       .  A
C1277      H1289   1.082       .  S
C1278      H1290   1.082       .  S
C1279      C1280   1.376       .  A
C1279      H1291   1.082       .  S
C1280      H1292   1.082       .  S
C1281      C1439   1.451       .  S
C1282      C1437   1.455       .  S
C1283      C1436   1.459       .  S
C1284      C1433   1.453       .  S
O1295      C1306   1.291       .  A
O1296      C1307   1.291       .  A
O1297      C1308   1.292       .  A
O1298      C1309   1.292       .  A
O1301      C1307   1.293       .  A
O1301     Zr1303   2.452       .  S
O1302      C1306   1.292       .  A
Zr1303     O1304   2.342       .  S
C1306      C1440   1.436       .  S
C1307      C1438   1.441       .  S
C1308      C1432   1.436       .  S
C1309      C1430   1.437       .  S
H1310      O1311   0.964       .  S
H1312      O1313   0.964       .  S
O1314      C1337   1.293       .  A
O1314     Zr1330   2.450   1_556  S
O1315      C1338   1.293       .  A
O1315     Zr1331   2.451   1_556  S
O1316      C1339   1.292       .  A
O1316     Zr1332   2.448       .  S
O1317      C1340   1.292       .  A
O1317     Zr1333   2.446       .  S
O1318      C1341   1.291   1_556  A
O1319      C1342   1.291       .  A
O1320      C1343   1.293       .  A
O1321      C1344   1.290       .  A
O1321     Zr1334   2.437       .  S
O1322      C1343   1.292       .  A
O1322     Zr1332   2.444       .  S
O1323      C1344   1.291   1_545  A
O1323     Zr1333   2.442   1_546  S
O1324      C1339   1.292       .  A
O1325      C1342   1.292       .  A
O1326      C1341   1.290       .  A
O1326     Zr1331   2.436       .  S
O1327      C1340   1.292       .  A
O1327     Zr1330   2.444       .  S
O1328      C1337   1.293       .  A
O1328     Zr1334   2.452       .  S
O1329      C1338   1.291       .  A
Zr1330     O1348   2.345   1_554  S
Zr1331     O1335   2.343   1_554  S
Zr1332     O1336   2.344       .  S
Zr1333     O1348   2.345   1_554  S
Zr1334     O1348   2.345       .  S
C1337      C1435   1.445       .  S
C1338      C1434   1.439       .  S
C1339      C1418   1.442       .  S
C1340      C1422   1.439       .  S
C1341      C1423   1.434       .  S
C1342      C1419   1.437       .  S
C1343      C1425   1.441       .  S
C1344      C1428   1.434       .  S
H1345      O1346   0.965       .  S
H1347      O1348   0.964       .  S
N1349      C1354   1.355       .  A
N1349      C1353   1.355       .  A
N1349      H1381   1.034       .  S
N1350      C1357   1.353       .  A
N1350      C1358   1.353       .  A
N1351      C1356   1.354       .  A
N1351      C1355   1.354       .  A
N1351      H1382   1.035       .  S
N1352      C1359   1.352       .  A
N1352      C1360   1.352       .  A
C1353      C1361   1.388       .  A
C1353      C1369   1.418       .  A
C1354      C1370   1.418       .  A
C1354      C1362   1.388       .  A
C1355      C1363   1.387       .  A
C1355      C1372   1.417       .  A
C1356      C1371   1.417       .  A
C1356      C1364   1.388       .  A
C1357      C1369   1.416       .  A
C1357      C1365   1.387       .  A
C1358      C1372   1.415       .  A
C1358      C1366   1.387       .  A
C1359      C1367   1.387       .  A
C1359      C1370   1.414       .  A
C1360      C1368   1.387       .  A
C1360      C1371   1.414       .  A
C1361      C1362   1.375       .  A
C1361      H1373   1.082       .  S
C1362      H1374   1.082       .  S
C1363      C1364   1.374       .  A
C1363      H1375   1.082       .  S
C1364      H1376   1.082       .  S
C1365      C1366   1.372       .  A
C1365      H1377   1.082       .  S
C1366      H1378   1.082       .  S
C1367      C1368   1.373       .  A
C1367      H1379   1.083       .  S
C1368      H1380   1.083       .  S
C1369      C1427   1.455       .  S
C1370      C1426   1.452       .  S
C1371      C1431   1.452       .  S
C1372      C1429   1.454       .  S
N1383      C1388   1.354   1_554  A
N1383      C1387   1.353   1_554  A
N1383      H1415   1.040       .  S
N1384      C1391   1.351       .  A
N1384      C1392   1.351       .  A
N1385      C1390   1.352   1_554  A
N1385      C1389   1.352   1_554  A
N1385      H1416   1.038       .  S
N1386      C1393   1.353       .  A
N1386      C1394   1.352       .  A
C1387      C1395   1.387       .  A
C1387      C1403   1.414   1_556  A
C1388      C1404   1.414       .  A
C1388      C1396   1.387       .  A
C1389      C1397   1.388       .  A
C1389      C1406   1.413   1_556  A
C1390      C1405   1.414   1_556  A
C1390      C1398   1.388       .  A
C1391      C1403   1.413       .  A
C1391      C1399   1.387       .  A
C1392      C1406   1.413       .  A
C1392      C1400   1.387       .  A
C1393      C1401   1.386       .  A
C1393      C1404   1.413   1_554  A
C1394      C1402   1.387       .  A
C1394      C1405   1.414       .  A
C1395      C1396   1.377       .  A
C1395      H1407   1.082       .  S
C1396      H1408   1.082       .  S
C1397      C1398   1.377       .  A
C1397      H1409   1.083       .  S
C1398      H1410   1.082       .  S
C1399      C1400   1.375       .  A
C1399      H1411   1.082       .  S
C1400      H1412   1.082       .  S
C1401      C1402   1.374       .  A
C1401      H1413   1.082       .  S
C1402      H1414   1.082       .  S
C1403      C1421   1.453       .  S
C1404      C1417   1.456       .  S
C1405      C1420   1.451       .  S
C1406      C1424   1.449       .  S
C1417      C1418   1.210       .  T
C1419      C1420   1.207       .  T
C1421      C1422   1.209       .  T
C1423      C1424   1.206       .  T
C1429      C1430   1.208       .  T
C1431      C1432   1.207       .  T
C1433      C1434   1.208       .  T
C1435      C1436   1.212       .  T
C1437      C1438   1.210       .  T
C1439      C1440   1.207       .  T
