geometry optimzed in LAMMPS
_audit_creation_date              2020-11-30 
_audit_creation_method            'lammps2cif' 
_symmetry_space_group_name_H-M    'P1' 
_symmetry_Int_Tables_number       1 
_symmetry_cell_setting            triclinic 
loop_ 
_symmetry_equiv_pos_as_xyz 
  x,y,z 
_cell_length_a                    38.80630776 
_cell_length_b                    38.86254623278026 
_cell_length_c                    58.512105793781444 
_cell_angle_alpha                 90.32520790633357 
_cell_angle_beta                  89.56038154052816 
_cell_angle_gamma                 120.1405221792146 
loop_ 
_atom_site_label 
_atom_site_type_symbol 
_atom_site_fract_x 
_atom_site_fract_y 
_atom_site_fract_z 
_atom_site_charge 
N1          N  0.60956293  0.48689974  0.11608354    -0.26100
N2          N  0.62325934  0.51262336  0.09904212    -0.34000
C3          C  0.66055400  0.54171455  0.10408461     0.02200
C4          C  0.67056877  0.53359276  0.12534072     0.08300
C5          C  0.63746525  0.49876754  0.13236767    -0.04800
H6          H  0.67914114  0.56624534  0.09286359     0.08900
H7          H  0.63432519  0.48247949  0.14791819     0.10100
Cu8        Cu  0.59023291  0.50443738  0.06951036     0.44200
Cu9        Cu  0.55526064  0.43470827  0.11575800     0.42000
Cu10       Cu  0.49364485  0.40957399  0.06640771     0.43900
N11         N  0.55014668  0.48762061  0.04249920    -0.33500
N12         N  0.51552823  0.45393228  0.04154558    -0.27700
C13         C  0.49718101  0.45304989  0.02195001    -0.03800
C14         C  0.52131212  0.48765334  0.00997145     0.08400
C15         C  0.55463677  0.50886144  0.02347303     0.02200
H16         H  0.46833989  0.42890344  0.01682804     0.09800
H17         H  0.58019635  0.53774559  0.01984161     0.08900
N18         N  0.48062015  0.37052739  0.09366464    -0.34900
N19         N  0.50361276  0.38055850  0.11188220    -0.27100
C20         C  0.48900996  0.34971826  0.12640626    -0.02400
C21         C  0.45515918  0.31851281  0.11699166     0.06300
C22         C  0.45054399  0.33270611  0.09615138     0.04400
H23         H  0.50247343  0.34981535  0.14254970     0.09500
H24         H  0.42744917  0.31680014  0.08364279     0.08300
N25         N  0.41425862  0.50266629  0.88584251    -0.26100
N26         N  0.40373679  0.47778219  0.90324581    -0.34000
C27         C  0.36652029  0.44742560  0.89987027     0.02200
C28         C  0.35291254  0.45342241  0.87937678     0.08300
C29         C  0.38399115  0.48879317  0.87090357    -0.04800
H30         H  0.35057298  0.42270379  0.91147225     0.08900
H31         H  0.38481613  0.50349878  0.85510749     0.10100
Cu32       Cu  0.44041626  0.48597295  0.93071696     0.44200
Cu33       Cu  0.46910257  0.55457302  0.88336476     0.42000
Cu34       Cu  0.53720273  0.57551303  0.93055847     0.43900
N35         N  0.48223695  0.50023684  0.95620302    -0.33500
N36         N  0.51762650  0.53293657  0.95625613    -0.27700
C37         C  0.53716138  0.53346913  0.97529591    -0.03800
C38         C  0.51285087  0.49945469  0.98776235     0.08400
C39         C  0.47832181  0.47908023  0.97512791     0.02200
H40         H  0.56674172  0.55699947  0.97977235     0.09800
H41         H  0.45207011  0.45110944  0.97944340     0.08900
N42         N  0.54917243  0.61365248  0.90307838    -0.34900
N43         N  0.52446175  0.60585501  0.88583794    -0.27100
C44         C  0.54060753  0.63662521  0.87117812    -0.02400
C45         C  0.57731025  0.66528082  0.87962162     0.06300
C46         C  0.58168387  0.64964446  0.89983876     0.04400
H47         H  0.52625092  0.63800556  0.85572642     0.09500
H48         H  0.60656636  0.66360128  0.91148136     0.08300
O49         O  0.49573236  0.42595645  0.50275117    -0.71800
O50         O  0.54038905  0.52933296  0.46966917    -0.72700
O51         O  0.57150211  0.49613028  0.50081500    -0.61400
O52         O  0.46449834  0.45938860  0.47219470    -0.69800
O53         O  0.44805665  0.48430464  0.50181942    -0.69300
O54         O  0.55424377  0.52165738  0.52976335    -0.60600
O55         O  0.52316642  0.55481166  0.49864350    -0.73100
O56         O  0.47918711  0.45081772  0.53232317    -0.71900
Cu57       Cu  0.51868146  0.47685083  0.48533137     1.04600
Cu58       Cu  0.50065065  0.50384742  0.51665375     1.04300
C59         C  0.48022462  0.42181878  0.52259863     0.94400
C60         C  0.53851325  0.55825707  0.47875029     0.93600
C61         C  0.57949124  0.51460826  0.51994351     0.85700
C62         C  0.43933918  0.46591353  0.48275090     0.92000
O63         O  0.16182212  0.77185731  0.81730503    -0.71800
O64         O  0.21113712  0.88153111  0.79200079    -0.72700
O65         O  0.23980142  0.83835870  0.81638491    -0.61400
O66         O  0.13288270  0.81476777  0.79334509    -0.69800
O67         O  0.12093107  0.83580273  0.82620141    -0.69300
O68         O  0.22811064  0.86027616  0.84898879    -0.60600
O69         O  0.19896712  0.90340923  0.82448941    -0.73100
O70         O  0.15026701  0.79258574  0.85040636    -0.71900
Cu71       Cu  0.18680358  0.82594200  0.80362610     1.04600
Cu72       Cu  0.17415674  0.84881983  0.83869198     1.04300
C73         C  0.14858345  0.76481705  0.83776131     0.94400
C74         C  0.21278455  0.90974317  0.80406417     0.93600
C75         C  0.25079321  0.85305712  0.83637119     0.85700
C76         C  0.10985360  0.82106240  0.80624915     0.92000
N77         N  0.51030061  0.08586011  0.10907496    -0.26100
N78         N  0.48682081  0.07328261  0.09105305    -0.34000
C79         C  0.45425064  0.07609876  0.09542378     0.02200
C80         C  0.45761686  0.09136096  0.11731419     0.08300
C81         C  0.49346295  0.09710668  0.12541951    -0.04800
H82         H  0.43063335  0.06860821  0.08328310     0.08900
H83         H  0.50683308  0.10950792  0.14179453     0.10100
Cu84       Cu  0.50211569  0.05535278  0.06113110     0.44200
Cu85       Cu  0.56483619  0.08873249  0.10993585     0.42000
Cu86       Cu  0.59895429  0.06004694  0.05921686     0.43900
N87         N  0.52386657  0.03924088  0.03310181    -0.33500
N88         N  0.55867280  0.04070484  0.03222156    -0.27700
C89         C  0.56214668  0.02635363  0.01184728    -0.03800
C90         C  0.52789767  0.01537045  0.99943217     0.08400
C91         C  0.50442554  0.02409233  0.01340002     0.02200
H92         H  0.58730899  0.02328593  0.00670291     0.09800
H93         H  0.47487047  0.01886415  0.00980044     0.08900
N94         N  0.63120886  0.07905422  0.08952192    -0.34900
N95         N  0.61826028  0.08932130  0.10783896    -0.27100
C96         C  0.64522408  0.10006161  0.12457473    -0.02400
C97         C  0.67678153  0.09646758  0.11656950     0.06300
C98         C  0.66701226  0.08306232  0.09421484     0.04400
H99         H  0.64212934  0.10999833  0.14138045     0.09500
H100        H  0.68449845  0.07680472  0.08221033     0.08300
N101        N  0.51023508  0.89641382  0.87263156    -0.26100
N102        N  0.53731791  0.91196369  0.88892747    -0.34000
C103        C  0.56794004  0.90635576  0.88348805     0.02200
C104        C  0.55958864  0.88638069  0.86274512     0.08300
C105        C  0.52293216  0.88074323  0.85640057    -0.04800
H106        H  0.59407053  0.91595240  0.89395398     0.08900
H107        H  0.50630594  0.86568999  0.84122494     0.10100
Cu108      Cu  0.53116554  0.93971297  0.91788933     0.44200
Cu109      Cu  0.45628918  0.89525573  0.87304635     0.42000
Cu110      Cu  0.43806011  0.94045289  0.92159470     0.43900
N111        N  0.51668284  0.96568105  0.94463424    -0.33500
N112        N  0.48272231  0.96585490  0.94582948    -0.27700
C113        C  0.48193540  0.98409225  0.96523932    -0.03800
C114        C  0.51704778  0.99597981  0.97686509     0.08400
C115        C  0.53844647  0.98389058  0.96331705     0.02200
H116        H  0.45728366  0.98784174  0.97061635     0.09800
H117        H  0.56736723  0.98745485  0.96691619     0.08900
N118        N  0.39722424  0.91299284  0.89556916    -0.34900
N119        N  0.40390448  0.89640331  0.87759478    -0.27100
C120        C  0.37198573  0.88139298  0.86379546    -0.02400
C121        C  0.34386480  0.88899196  0.87364857     0.06300
C122        C  0.36088294  0.90898153  0.89374708     0.04400
H123        H  0.36965498  0.86618811  0.84784880     0.09500
H124        H  0.34786660  0.92001503  0.90611097     0.08300
N125        N  0.91056142  0.47434534  0.11139939    -0.26100
N126        N  0.92824755  0.50340997  0.09632258    -0.34000
C127        C  0.92168954  0.53318866  0.10227335     0.02200
C128        C  0.89868382  0.52227846  0.12206355     0.08300
C129        C  0.89233978  0.48486572  0.12732476    -0.04800
H130        H  0.93267689  0.56051669  0.09274082     0.08900
H131        H  0.87538379  0.46644180  0.14162282     0.10100
Cu132      Cu  0.95922038  0.50037226  0.06785814     0.44200
Cu133      Cu  0.91137337  0.42131720  0.10944106     0.42000
Cu134      Cu  0.96209011  0.40867100  0.06073637     0.43900
N135        N  0.98491495  0.48830728  0.03980820    -0.33500
N136        N  0.98591668  0.45497211  0.03722824    -0.27700
C137        C  0.00323130  0.45595874  0.01702196    -0.03800
C138        C  0.01350317  0.49152521  0.00632402     0.08400
C139        C  0.00149603  0.51130320  0.02126848     0.02200
H140        H  0.00732101  0.43217388  0.01044006     0.09800
H141        H  0.00403004  0.54003848  0.01872297     0.08900
N142        N  0.93494943  0.36638242  0.08635774    -0.34900
N143        N  0.91644266  0.37110104  0.10411797    -0.27100
C144        C  0.90195285  0.33865625  0.11747730    -0.02400
C145        C  0.91179795  0.31212350  0.10765711     0.06300
C146        C  0.93265916  0.33073320  0.08794746     0.04400
H147        H  0.88527577  0.33480017  0.13307037     0.09500
H148        H  0.94513140  0.31911835  0.07559549     0.08300
N149        N  0.11236536  0.51396431  0.87166208    -0.26100
N150        N  0.10484079  0.48939833  0.88895055    -0.34000
C151        C  0.11494174  0.46217446  0.88275170     0.02200
C152        C  0.12955293  0.47012696  0.86046764     0.08300
C153        C  0.12748315  0.50320141  0.85408211    -0.04800
H154        H  0.11232969  0.43880364  0.89383392     0.08900
H155        H  0.13681278  0.51869811  0.83791557     0.10100
Cu156      Cu  0.08200455  0.49523446  0.92030789     0.44200
Cu157      Cu  0.10387004  0.56229515  0.87323899     0.42000
Cu158      Cu  0.07120248  0.58307194  0.92683908     0.43900
N159        N  0.05869573  0.50781630  0.94945918    -0.33500
N160        N  0.05496063  0.53970803  0.95166075    -0.27700
C161        C  0.03872379  0.53889013  0.97218236    -0.03800
C162        C  0.03176807  0.50486339  0.98351232     0.08400
C163        C  0.04476280  0.48582903  0.96861758     0.02200
H164        H  0.03214357  0.56131091  0.97828189     0.09800
H165        H  0.04396531  0.45794859  0.97142761     0.08900
N166        N  0.08961257  0.62135180  0.89915986    -0.34900
N167        N  0.10063144  0.61294427  0.87947242    -0.27100
C168        C  0.11231775  0.64374783  0.86519487    -0.02400
C169        C  0.10858549  0.67320254  0.87642254     0.06300
C170        C  0.09417005  0.65800730  0.89794605     0.04400
H171        H  0.12416644  0.64492507  0.84825322     0.09500
H172        H  0.08835059  0.67285495  0.91187146     0.08300
O173        O  0.78220309  0.12806822  0.15545620    -0.71800
O174        O  0.88353076  0.16906943  0.19078012    -0.72700
O175        O  0.85071439  0.20366149  0.16195245    -0.61400
O176        O  0.81519861  0.09317562  0.18438293    -0.69800
O177        O  0.84374318  0.08283992  0.15416147    -0.69300
O178        O  0.87935916  0.19368036  0.13164499    -0.60600
O179        O  0.91237916  0.15890510  0.16063221    -0.73100
O180        O  0.81056251  0.11763678  0.12517944    -0.71900
Cu181      Cu  0.83188066  0.14878790  0.17416862     1.04600
Cu182      Cu  0.86249643  0.13783591  0.14184223     1.04300
C183        C  0.78047995  0.11695339  0.13468235     0.94400
C184        C  0.91394437  0.17049562  0.18130450     0.93600
C185        C  0.87040181  0.21607601  0.14329445     0.85700
C186        C  0.82435595  0.07074172  0.17294449     0.92000
N187        N  0.27534900  0.80898029  0.44678465    -0.26100
N188        N  0.28421439  0.83342544  0.42927558    -0.34000
C189        C  0.31891961  0.86679942  0.43328459     0.02200
C190        C  0.33284156  0.86340962  0.45426592     0.08300
C191        C  0.30448150  0.82632066  0.46247016    -0.04800
H192        H  0.33339899  0.89149395  0.42151630     0.08900
H193        H  0.30515502  0.81262841  0.47837365     0.10100
Cu194      Cu  0.25050892  0.82073433  0.40000787     0.44200
Cu195      Cu  0.22432583  0.75303009  0.44770520     0.42000
Cu196      Cu  0.16299916  0.72555762  0.39590315     0.43900
N197        N  0.21378711  0.80286785  0.37181050    -0.33500
N198        N  0.18146972  0.76744805  0.37017343    -0.27700
C199        C  0.16338064  0.76501497  0.35023397    -0.03800
C200        C  0.18545364  0.80074589  0.33883732     0.08400
C201        C  0.21724075  0.82403714  0.35297956     0.02200
H202        H  0.13586428  0.73941701  0.34468200     0.09800
H203        H  0.24081099  0.85431201  0.35000984     0.08900
N204        N  0.14894226  0.69024554  0.42465263    -0.34900
N205        N  0.17088360  0.69990841  0.44334430    -0.27100
C206        C  0.15289536  0.67005944  0.45850775    -0.02400
C207        C  0.11798035  0.64028074  0.44883569     0.06300
C208        C  0.11648411  0.65417188  0.42744681     0.04400
H209        H  0.16465517  0.67018600  0.47521978     0.09500
H210        H  0.09362416  0.63898822  0.41470164     0.08300
N211        N  0.18566059  0.92015968  0.21666006    -0.26100
N212        N  0.20861860  0.93018921  0.23489813    -0.34000
C213        C  0.23923211  0.96763126  0.23226385     0.02200
C214        C  0.23539338  0.98184911  0.21134081     0.08300
C215        C  0.20096584  0.95083193  0.20194512    -0.04800
H216        H  0.26271192  0.98328658  0.24460957     0.08900
H217        H  0.18781123  0.95028503  0.18563120     0.10100
Cu218      Cu  0.19676989  0.89150600  0.26207505     0.44200
Cu219      Cu  0.13430586  0.86522197  0.21264676     0.42000
Cu220      Cu  0.10644803  0.79293506  0.25765028     0.43900
N221        N  0.17885458  0.84651834  0.28617991    -0.33500
N222        N  0.14648093  0.81099289  0.28450574    -0.27700
C223        C  0.14398852  0.78924803  0.30289881    -0.03800
C224        C  0.17627376  0.81213949  0.31678474     0.08400
C225        C  0.19774952  0.84823947  0.30569777     0.02200
H226        H  0.12029175  0.75905475  0.30593756     0.09800
H227        H  0.22506517  0.87394457  0.31137898     0.08900
N228        N  0.07160676  0.78364709  0.22900718    -0.34900
N229        N  0.08231134  0.81018455  0.21247052    -0.27100
C230        C  0.05341023  0.79649812  0.19669639    -0.02400
C231        C  0.02290682  0.75970457  0.20359997     0.06300
C232        C  0.03542743  0.75233575  0.22420334     0.04400
H233        H  0.05407799  0.81268222  0.18155510     0.09500
H234        H  0.01930173  0.72667240  0.23513398     0.08300
N235        N  0.17774810  0.40232228  0.44892754    -0.26100
N236        N  0.15348207  0.39434025  0.43143508    -0.34000
C237        C  0.12495122  0.40275921  0.43748559     0.02200
C238        C  0.13180611  0.41672262  0.45985677     0.08300
C239        C  0.16539754  0.41588378  0.46649456    -0.04800
H240        H  0.10158563  0.39966032  0.42622888     0.08900
H241        H  0.18056141  0.42563051  0.48271220     0.10100
Cu242      Cu  0.16170787  0.37407262  0.39987965     0.44200
Cu243      Cu  0.22922665  0.39918961  0.44778379     0.42000
Cu244      Cu  0.25710238  0.37702578  0.39405295     0.43900
N245        N  0.17869184  0.35409132  0.37109746    -0.33500
N246        N  0.21338589  0.35548043  0.36937735    -0.27700
C247        C  0.21530692  0.33967348  0.34932236    -0.03800
C248        C  0.18022228  0.32763727  0.33771319     0.08400
C249        C  0.15757756  0.33723504  0.35195924     0.02200
H250        H  0.24041664  0.33683797  0.34376164     0.09800
H251        H  0.12787466  0.33195759  0.34880184     0.08900
N252        N  0.29507358  0.39737777  0.42164326    -0.34900
N253        N  0.28424514  0.40492079  0.44162303    -0.27100
C254        C  0.31511421  0.41882361  0.45603120    -0.02400
C255        C  0.34707152  0.42011000  0.44451204     0.06300
C256        C  0.33324144  0.40612514  0.42278060     0.04400
H257        H  0.31417796  0.42772047  0.47345811     0.09500
H258        H  0.34986830  0.40318847  0.40872343     0.08300
N259        N  0.19231613  0.22791177  0.21065870    -0.26100
N260        N  0.21383757  0.23996427  0.22943765    -0.34000
C261        C  0.24501939  0.23407175  0.22716847     0.02200
C262        C  0.24275819  0.21731399  0.20592575     0.08300
C263        C  0.20898796  0.21399370  0.19589005    -0.04800
H264        H  0.26692710  0.24031100  0.24027623     0.08900
H265        H  0.19639903  0.20122236  0.17945449     0.10100
Cu266      Cu  0.19697405  0.26090712  0.25727152     0.44200
Cu267      Cu  0.13897077  0.22664412  0.20705091     0.42000
Cu268      Cu  0.09979978  0.25523670  0.25567008     0.43900
N269        N  0.17470125  0.28100834  0.28290842    -0.33500
N270        N  0.13980814  0.27936576  0.28276716    -0.27700
C271        C  0.13590785  0.29567670  0.30234401    -0.03800
C272        C  0.17003677  0.30805225  0.31519894     0.08400
C273        C  0.19379750  0.29822939  0.30233161     0.02200
H274        H  0.11029445  0.29842864  0.30681420     0.09800
H275        H  0.22302082  0.30326250  0.30667556     0.08900
N276        N  0.06798766  0.22972957  0.22572381    -0.34900
N277        N  0.08289493  0.22003109  0.20807333    -0.27100
C278        C  0.05530018  0.20389857  0.19161241    -0.02400
C279        C  0.02123227  0.20324427  0.19913271     0.06300
C280        C  0.03024898  0.21990007  0.22086909     0.04400
H281        H  0.05963016  0.19300114  0.17540854     0.09500
H282        H  0.01097104  0.22447515  0.23237649     0.08300
O283        O  0.27749509  0.15134021  0.14812985    -0.71800
O284        O  0.34271792  0.10855349  0.12045764    -0.72700
O285        O  0.27546801  0.07766272  0.14995911    -0.61400
O286        O  0.34442206  0.18233844  0.11877539    -0.69800
O287        O  0.38401209  0.20352638  0.14901573    -0.69300
O288        O  0.31478983  0.09792691  0.18033086    -0.60600
O289        O  0.38262620  0.12950227  0.15058863    -0.73100
O290        O  0.31670800  0.17224026  0.17857874    -0.77300
Cu291      Cu  0.30867438  0.12919870  0.13333136     1.04600
Cu292      Cu  0.35099974  0.15151687  0.16571858     1.04300
C293        C  0.28678196  0.16866420  0.16753413     0.94400
C294        C  0.37314800  0.11252570  0.13101476     0.93600
C295        C  0.28392172  0.07118248  0.16994535     0.85700
C296        C  0.37487009  0.20965415  0.12906463     0.92000
O297        O  0.02726121  0.44847454  0.47133812    -0.71800
O298        O  0.96801806  0.49038643  0.50700012    -0.72700
O299        O  0.03434759  0.52440422  0.47659309    -0.61400
O300        O  0.96156370  0.41491823  0.50232547    -0.69800
O301        O  0.00377742  0.42945046  0.53106404    -0.69300
O302        O  0.07488214  0.53787949  0.50608171    -0.60600
O303        O  0.00850381  0.50415963  0.53650005    -0.73100
O304        O  0.06917607  0.46260275  0.50016678    -0.71900
Cu305      Cu  0.99638914  0.46910790  0.48827645     1.04600
Cu306      Cu  0.04054897  0.48400948  0.51945296     1.04300
C307        C  0.05750922  0.44886957  0.48000008     0.94400
C308        C  0.97830795  0.50341490  0.52735487     0.93600
C309        C  0.06613891  0.54831453  0.48739702     0.85700
C310        C  0.97145141  0.40527808  0.52100137     0.92000
N311        N  0.84588236  0.53758998  0.54948495    -0.26100
N312        N  0.86772752  0.54863861  0.56822098    -0.34000
C313        C  0.89873729  0.54250253  0.56510948     0.02200
C314        C  0.89592534  0.52689700  0.54334586     0.08300
C315        C  0.86214356  0.52423822  0.53406193    -0.04800
H316        H  0.92144658  0.54893377  0.57771375     0.08900
H317        H  0.85007451  0.51320028  0.51725421     0.10100
Cu318      Cu  0.85349215  0.57180779  0.59667659     0.44200
Cu319      Cu  0.79432405  0.53973965  0.54514709     0.42000
Cu320      Cu  0.76034956  0.57348379  0.59260054     0.43900
N321        N  0.83275876  0.59606513  0.62141773    -0.33500
N322        N  0.79900747  0.59657340  0.61992030    -0.27700
C323        C  0.79547559  0.61595872  0.63811988    -0.03800
C324        C  0.82861264  0.62832720  0.65171852     0.08400
C325        C  0.85155136  0.61514378  0.64065378     0.02200
H326        H  0.77101691  0.62138054  0.64093105     0.09800
H327        H  0.88025698  0.61981525  0.64591317     0.08900
N328        N  0.72876584  0.55226264  0.56254036    -0.34900
N329        N  0.74144925  0.54018955  0.54492695    -0.27100
C330        C  0.71417488  0.52774269  0.52820955    -0.02400
C331        C  0.68284473  0.53230160  0.53566137     0.06300
C332        C  0.69309597  0.54793952  0.55754519     0.04400
H333        H  0.71673022  0.51574104  0.51196574     0.09500
H334        H  0.67590082  0.55514788  0.56921651     0.08300
N335        N  0.84494279  0.76518874  0.77127667    -0.26100
N336        N  0.81794496  0.74854099  0.75497632    -0.34000
C337        C  0.78688565  0.75371937  0.76007726     0.02200
C338        C  0.79486345  0.77446261  0.78056696     0.08300
C339        C  0.83179659  0.78112602  0.78708161    -0.04800
H340        H  0.76047257  0.74289432  0.74970536     0.08900
H341        H  0.84809525  0.79660398  0.80225867     0.10100
Cu342      Cu  0.82396365  0.71841695  0.72684940     0.44200
Cu343      Cu  0.89911476  0.76686149  0.77215626     0.42000
Cu344      Cu  0.91518228  0.71438678  0.72754789     0.43900
N345        N  0.83832570  0.68803961  0.70240032    -0.33500
N346        N  0.87157879  0.68652311  0.70324458    -0.27700
C347        C  0.87279794  0.66497173  0.68559380    -0.03800
C348        C  0.83872624  0.65213873  0.67285859     0.08400
C349        C  0.81740119  0.66726790  0.68395584     0.02200
H350        H  0.89703586  0.65943220  0.68221412     0.09800
H351        H  0.78896351  0.66361079  0.67896403     0.08900
N352        N  0.95761494  0.74667744  0.75177808    -0.34900
N353        N  0.95190738  0.76624408  0.76849781    -0.27100
C354        C  0.98524193  0.78495839  0.78111271    -0.02400
C355        C  0.01320732  0.77667160  0.77169474     0.06300
C356        C  0.99463280  0.75237713  0.75316407     0.04400
H357        H  0.98878138  0.80341123  0.79581810     0.09500
H358        H  0.00715559  0.73984512  0.74146425     0.08300
O359        O  0.65959322  0.78131540  0.85055976    -0.71800
O360        O  0.73244973  0.88890553  0.82244585    -0.72700
O361        O  0.66743762  0.85810322  0.85396031    -0.61400
O362        O  0.72514500  0.81266163  0.81921071    -0.69800
O363        O  0.68324229  0.79711730  0.79025285    -0.69300
O364        O  0.62557619  0.84280635  0.82499687    -0.60600
O365        O  0.69017767  0.87305235  0.79362994    -0.73100
O366        O  0.61807308  0.76662084  0.82146798    -0.71900
Cu367      Cu  0.69762943  0.83574579  0.83758851     1.04600
Cu368      Cu  0.65281739  0.81937626  0.80661794     1.04300
C369        C  0.62720313  0.75709057  0.84036258     0.94400
C370        C  0.72265330  0.89765935  0.80344055     0.93600
C371        C  0.63734436  0.85759977  0.84492874     0.85700
C372        C  0.71367463  0.79815522  0.79919914     0.92000
N373        N  0.83222322  0.24526660  0.54814576    -0.26100
N374        N  0.85968427  0.25658882  0.56417034    -0.34000
C375        C  0.89129442  0.29158757  0.55827305     0.02200
C376        C  0.88352909  0.30309229  0.53747271     0.08300
C377        C  0.84576090  0.27304956  0.53158593    -0.04800
H378        H  0.91758797  0.30748633  0.56871291     0.08900
H379        H  0.82920327  0.27163268  0.51647248     0.10100
Cu380      Cu  0.85403472  0.22566066  0.59389542     0.44200
Cu381      Cu  0.77752114  0.19292725  0.54987504     0.42000
Cu382      Cu  0.76141226  0.13495350  0.60124067     0.43900
N383        N  0.84138781  0.18953954  0.62216209    -0.33500
N384        N  0.80721940  0.15595570  0.62470078    -0.27700
C385        C  0.80794961  0.13861713  0.64432985    -0.03800
C386        C  0.84431853  0.16249737  0.65466715     0.08400
C387        C  0.86482935  0.19461898  0.64018995     0.02200
H388        H  0.78379872  0.11059156  0.65052371     0.09800
H389        H  0.89465786  0.21955627  0.64241986     0.08900
N390        N  0.71970711  0.11878338  0.57553921    -0.34900
N391        N  0.72551814  0.13965286  0.55669027    -0.27100
C392        C  0.69286640  0.12079574  0.54353586    -0.02400
C393        C  0.66520250  0.08640027  0.55471905     0.06300
C394        C  0.68326151  0.08620501  0.57492306     0.04400
H395        H  0.68969302  0.13153936  0.52712878     0.09500
H396        H  0.67085710  0.06389589  0.58821154     0.08300
N397        N  0.86249437  0.05918204  0.77908077    -0.26100
N398        N  0.83651765  0.04897865  0.76233333    -0.34000
C399        C  0.80444763  0.01350164  0.76715075     0.02200
C400        C  0.81058888  0.00075996  0.78803616     0.08300
C401        C  0.84770071  0.03048692  0.79506908    -0.04800
H402        H  0.77881099  0.99832588  0.75614266     0.08900
H403        H  0.86291178  0.03116034  0.81063022     0.10100
Cu404      Cu  0.84606559  0.08422178  0.73393439     0.44200
Cu405      Cu  0.91654197  0.11174776  0.77902271     0.42000
Cu406      Cu  0.93770242  0.18013763  0.73155848     0.43900
N407        N  0.86053639  0.12495920  0.70780922    -0.33500
N408        N  0.89371901  0.15990079  0.70679247    -0.27700
C409        C  0.89328288  0.17881926  0.68768424    -0.03800
C410        C  0.85808710  0.15455395  0.67626292     0.08400
C411        C  0.83811152  0.12073209  0.68948878     0.02200
H412        H  0.91673991  0.20806738  0.68258049     0.09800
H413        H  0.80934469  0.09486405  0.68610224     0.08900
N414        N  0.97583675  0.19148278  0.75886782    -0.34900
N415        N  0.96804654  0.16634799  0.77590275    -0.27100
C416        C  0.99822398  0.18249989  0.79085822    -0.02400
C417        C  0.02633156  0.21961511  0.78299643     0.06300
C418        C  0.01126990  0.22442648  0.76260208     0.04400
H419        H  0.99935252  0.16839933  0.80650476     0.09500
H420        H  0.02468544  0.24991123  0.75135587     0.08300
O421        O  0.85450160  0.58844753  0.16045829    -0.71800
O422        O  0.81579717  0.65180251  0.19616728    -0.72700
O423        O  0.78289240  0.59242770  0.16133132    -0.61400
O424        O  0.88742900  0.64816548  0.19513777    -0.69800
O425        O  0.91155982  0.69479929  0.16836465    -0.69300
O426        O  0.80792741  0.63922066  0.13464829    -0.60600
O427        O  0.84029196  0.69849027  0.16943061    -0.73100
O428        O  0.87930848  0.63542178  0.13387986    -0.71900
Cu429      Cu  0.83424247  0.61851513  0.17919930     1.04600
Cu430      Cu  0.86060416  0.66855746  0.15066863     1.04300
C431        C  0.87325698  0.60212537  0.14159168     0.94400
C432        C  0.82201544  0.68516674  0.18846789     0.93600
C433        C  0.77897189  0.60714730  0.14267331     0.85700
C434        C  0.91599442  0.68049993  0.18700230     0.92000
N435        N  0.56796973  0.82382565  0.44097953    -0.26100
N436        N  0.57939795  0.84444097  0.42179505    -0.34000
C437        C  0.57378823  0.87585466  0.42384025     0.02200
C438        C  0.55843502  0.87501466  0.44542259     0.08300
C439        C  0.55499275  0.84143074  0.45574374    -0.04800
H440        H  0.58076586  0.89790872  0.41069773     0.08900
H441        H  0.54369605  0.83021162  0.47266509     0.10100
Cu442      Cu  0.60309432  0.82845711  0.39443407     0.44200
Cu443      Cu  0.57015264  0.77255420  0.44640217     0.42000
Cu444      Cu  0.60896356  0.73775026  0.40105708     0.43900
N445        N  0.62794563  0.80744324  0.37034782    -0.33500
N446        N  0.63026380  0.77479135  0.37260546    -0.27700
C447        C  0.64898466  0.77083527  0.35412085    -0.03800
C448        C  0.65895065  0.80254258  0.33960681     0.08400
C449        C  0.64510776  0.82503961  0.35045077     0.02200
H450        H  0.65533027  0.74696157  0.35161301     0.09800
H451        H  0.64774690  0.85256119  0.34448224     0.08900
N452        N  0.58575610  0.70731907  0.43160968    -0.34900
N453        N  0.57198455  0.72050210  0.44815834    -0.27100
C454        C  0.55829705  0.69406413  0.46534090    -0.02400
C455        C  0.56352363  0.66258161  0.45939242     0.06300
C456        C  0.58109947  0.67194069  0.43786006     0.04400
H457        H  0.54471456  0.69716472  0.48084849     0.09500
H458        H  0.58937288  0.65427952  0.42730450     0.08300
N459        N  0.78785359  0.81602272  0.21642472    -0.26100
N460        N  0.77314422  0.78990280  0.23331639    -0.34000
C461        C  0.77993019  0.75976193  0.22858336     0.02200
C462        C  0.79979709  0.76739775  0.20773179     0.08300
C463        C  0.80425123  0.80324732  0.20064759    -0.04800
H464        H  0.77086670  0.73421214  0.23948433     0.08900
H465        H  0.81832366  0.81893504  0.18501521     0.10100
Cu466      Cu  0.74373480  0.79615449  0.26187068     0.44200
Cu467      Cu  0.78565613  0.86831239  0.21464387     0.42000
Cu468      Cu  0.73666574  0.88613381  0.26070087     0.43900
N469        N  0.71459420  0.81091684  0.28705395    -0.33500
N470        N  0.71204360  0.84357509  0.28610641    -0.27700
C471        C  0.69170245  0.84505637  0.30438201    -0.03800
C472        C  0.68085387  0.81188257  0.31767693     0.08400
C473        C  0.69582342  0.79076036  0.30620589     0.02200
H474        H  0.68566214  0.86891137  0.30781427     0.09800
H475        H  0.69342987  0.76297874  0.31142942     0.08900
N476        N  0.76326466  0.92595926  0.23412523    -0.34900
N477        N  0.78121028  0.91934390  0.21681347    -0.27100
C478        C  0.79536700  0.95037870  0.20232697    -0.02400
C479        C  0.78580648  0.97786214  0.21105277     0.06300
C480        C  0.76558260  0.96136159  0.23123814     0.04400
H481        H  0.81166695  0.95275145  0.18678411     0.09500
H482        H  0.75345474  0.97419060  0.24300375     0.08300
O483        O  0.55725787  0.02946834  0.50011484    -0.71800
O484        O  0.44762886  0.94879230  0.47965143    -0.72700
O485        O  0.48053059  0.02131088  0.50438606    -0.61400
O486        O  0.52376496  0.95621084  0.47544662    -0.69800
O487        O  0.51389620  0.92404505  0.50825118    -0.69300
O488        O  0.46969101  0.98777390  0.53674840    -0.60600
O489        O  0.43699325  0.91509038  0.51191907    -0.73100
O490        O  0.54701017  0.99710212  0.53286886    -0.71900
Cu491      Cu  0.50270158  0.99014469  0.48877928     1.04600
Cu492      Cu  0.49162067  0.95490556  0.52359366     1.04300
C493        C  0.56941669  0.02623322  0.51975337     0.94400
C494        C  0.42507716  0.91914111  0.49235334     0.93600
C495        C  0.46804703  0.01455273  0.52508680     0.85700
C496        C  0.52505621  0.92939117  0.48736096     0.92000
N497        N  0.42466762  0.14165150  0.54252935    -0.26100
N498        N  0.41214388  0.11865637  0.56083580    -0.34000
C499        C  0.41841599  0.08788419  0.55758409     0.02200
C500        C  0.43571745  0.09189472  0.53618310     0.08300
C501        C  0.43900848  0.12614644  0.52716479    -0.04800
H502        H  0.41149054  0.06484894  0.57006020     0.08900
H503        H  0.45209150  0.13957992  0.51087473     0.10100
Cu504      Cu  0.38875515  0.13142380  0.58970879     0.44200
Cu505      Cu  0.42550726  0.19504778  0.53964032     0.42000
Cu506      Cu  0.39214430  0.22694030  0.58806228     0.43900
N507        N  0.36758335  0.15275344  0.61580550    -0.33500
N508        N  0.36871291  0.18731204  0.61489066    -0.27700
C509        C  0.35366685  0.19292316  0.63437088    -0.03800
C510        C  0.34262083  0.16047858  0.64832555     0.08400
C511        C  0.35177145  0.13549022  0.63605182     0.02200
H512        H  0.35176304  0.21917490  0.63823548     0.09800
H513        H  0.34785985  0.10720572  0.64154576     0.08900
N514        N  0.41809508  0.26229711  0.55973185    -0.34900
N515        N  0.42989625  0.25021684  0.54172048    -0.27100
C516        C  0.44661953  0.27995878  0.52646879    -0.02400
C517        C  0.44546828  0.31237065  0.53535106     0.06300
C518        C  0.42706705  0.30014764  0.55649383     0.04400
H519        H  0.45955925  0.27841435  0.51032065     0.09500
H520        H  0.42111904  0.31741847  0.56879425     0.08300
N521        N  0.25978103  0.18704364  0.77937731    -0.26100
N522        N  0.27167512  0.20869318  0.76053802    -0.34000
C523        C  0.26827626  0.24128787  0.76360988     0.02200
C524        C  0.25351446  0.23986138  0.78546151     0.08300
C525        C  0.24863775  0.20519564  0.79488841    -0.04800
H526        H  0.27516338  0.26369471  0.75071470     0.08900
H527        H  0.23677001  0.19341129  0.81165752     0.10100
Cu528      Cu  0.29006709  0.19133665  0.73138251     0.44200
Cu529      Cu  0.25685719  0.13266156  0.78327448     0.42000
Cu530      Cu  0.29054073  0.09800178  0.73593184     0.43900
N531        N  0.30620107  0.16611954  0.70495356    -0.33500
N532        N  0.30645414  0.13231955  0.70666451    -0.27700
C533        C  0.31873895  0.12468816  0.68670005    -0.03800
C534        C  0.32672410  0.15520749  0.67173520     0.08400
C535        C  0.31841393  0.18091397  0.68383491     0.02200
H536        H  0.32210896  0.09909146  0.68347549     0.09800
H537        H  0.32147006  0.20860888  0.67785893     0.08900
N538        N  0.26898648  0.06660669  0.76606186    -0.34900
N539        N  0.25602059  0.07894098  0.78342878    -0.27100
C540        C  0.24139139  0.05064792  0.79967029    -0.02400
C541        C  0.24525174  0.01896138  0.79210560     0.06300
C542        C  0.26306265  0.03023073  0.77072834     0.04400
H543        H  0.22778273  0.05247857  0.81549338     0.09500
H544        H  0.27014027  0.01302919  0.75901112     0.08300
O545        O  0.15130304  0.34370541  0.78914577    -0.71800
O546        O  0.25554387  0.41634581  0.81927006    -0.72700
O547        O  0.22785922  0.35079919  0.78836388    -0.61400
O548        O  0.17857571  0.40861463  0.82069911    -0.69800
O549        O  0.16139082  0.36593598  0.84943210    -0.69300
O550        O  0.21093182  0.31000401  0.81799874    -0.60600
O551        O  0.23849786  0.37499093  0.84868055    -0.73100
O552        O  0.13436133  0.30148279  0.81810854    -0.71900
Cu553      Cu  0.20392220  0.38140030  0.80333249     1.04600
Cu554      Cu  0.18568755  0.33672003  0.83455195     1.04300
C555        C  0.12665440  0.31087863  0.79866588     0.94400
C556        C  0.26355905  0.40722016  0.83863937     0.93600
C557        C  0.22681444  0.32097806  0.79823662     0.85700
C558        C  0.16236790  0.39616401  0.84035807     0.92000
C559        C  0.24316280  0.29827985  0.78658707    -0.15200
C560        C  0.24172165  0.26653715  0.79669284    -0.30400
H561        H  0.25494717  0.30673367  0.76936542     0.13800
H562        H  0.22976887  0.25844406  0.81392619     0.14400
C563        C  0.45161074  0.03763038  0.53597187    -0.15200
C564        C  0.45029136  0.06729360  0.52513535    -0.30400
H565        H  0.44109504  0.03041700  0.55349428     0.13800
H566        H  0.46146357  0.07479994  0.50772355     0.14400
C567        C  0.53847757  0.90320859  0.47730108    -0.15200
C568        C  0.54780174  0.90380044  0.45506594    -0.30400
H569        H  0.53945960  0.88179317  0.48869519     0.13800
H570        H  0.54743958  0.92558612  0.44367348     0.14400
C571        C  0.80784367  0.70818602  0.20189469    -0.15200
C572        C  0.81365432  0.74361011  0.19483628    -0.30400
H573        H  0.79234150  0.69563230  0.21789650     0.13800
H574        H  0.82913876  0.75589576  0.17877513     0.14400
C575        C  0.06360283  0.24740597  0.79481336    -0.15200
C576        C  0.08930773  0.28376572  0.78673187    -0.30400
H577        H  0.06994427  0.23744992  0.81072838     0.13800
H578        H  0.08332290  0.29381813  0.77076437     0.14400
C579        C  0.62488006  0.05573247  0.54737515    -0.15200
C580        C  0.60973363  0.05685191  0.52701355    -0.30400
H581        H  0.60730337  0.03144547  0.55909977     0.13800
H582        H  0.62726746  0.08093140  0.51519184     0.14400
C583        C  0.74862384  0.93605001  0.79212485    -0.15200
C584        C  0.78429540  0.96333268  0.80035010    -0.30400
H585        H  0.73809305  0.94141052  0.77615604     0.13800
H586        H  0.79484705  0.95793480  0.81632952     0.14400
C587        C  0.77062760  0.78752548  0.79354578    -0.15200
C588        C  0.73592487  0.78293543  0.78603154    -0.30400
H589        H  0.78248956  0.80231679  0.80979278     0.13800
H590        H  0.72418103  0.76891644  0.76961699     0.14400
C591        C  0.95471924  0.51723820  0.54043940    -0.15200
C592        C  0.92176515  0.51474370  0.53142974    -0.30400
H593        H  0.96407710  0.52885129  0.55759036     0.13800
H594        H  0.91272566  0.50285418  0.51427870     0.14400
C595        C  0.94587616  0.36647340  0.53183722    -0.15200
C596        C  0.90904485  0.34016117  0.52464868    -0.30400
H597        H  0.95774170  0.36028220  0.54698975     0.13800
H598        H  0.89706888  0.34624184  0.50946640     0.14400
C599        C  0.26916711  0.20323861  0.19695285    -0.15200
C600        C  0.26209874  0.18432206  0.17678395    -0.30400
H601        H  0.29425138  0.20779904  0.20730287     0.13800
H602        H  0.23700211  0.17966523  0.16647570     0.14400
C603        C  0.11026122  0.43170195  0.47390965    -0.15200
C604        C  0.07860805  0.43322860  0.46616270    -0.30400
H605        H  0.12113159  0.44212122  0.49107067     0.13800
H606        H  0.06763009  0.42278479  0.44904216     0.14400
C607        C  0.98479038  0.73598776  0.19143890    -0.15200
C608        C  0.95426298  0.70168352  0.19939879    -0.30400
H609        H  0.98157490  0.74808099  0.17542118     0.13800
H610        H  0.95700199  0.68933318  0.21542075     0.14400
C611        C  0.26289354  0.02157884  0.20143289    -0.15200
C612        C  0.25710014  0.03214109  0.18057562    -0.30400
H613        H  0.28849368  0.04234060  0.21144788     0.13800
H614        H  0.23157570  0.01131054  0.17058180     0.14400
C615        C  0.37130720  0.89329805  0.46409958    -0.15200
C616        C  0.38511665  0.88901474  0.48423548    -0.30400
H617        H  0.38935644  0.91975455  0.45390413     0.13800
H618        H  0.36730934  0.86289086  0.49469019     0.14400
C619        C  0.08865843  0.60111068  0.45828255    -0.15200
C620        C  0.09383244  0.58833827  0.47850522    -0.30400
H621        H  0.06279389  0.58189913  0.44797090     0.13800
H622        H  0.11988542  0.60727094  0.48871621     0.14400
C623        C  0.95094073  0.18590085  0.19463212    -0.15200
C624        C  0.98390877  0.18756953  0.18605016    -0.30400
H625        H  0.95087064  0.19608498  0.21193408     0.13800
H626        H  0.98368985  0.17698305  0.16879359     0.14400
C627        C  0.79526850  0.01702955  0.20178222    -0.15200
C628        C  0.81336242  0.03072805  0.18146212    -0.30400
H629        H  0.78727365  0.03523089  0.21219559     0.13800
H630        H  0.82132697  0.01263785  0.17095829     0.14400
C631        C  0.14485187  0.41636853  0.85342572    -0.15200
C632        C  0.14563364  0.44954398  0.84632655    -0.30400
H633        H  0.13153303  0.40360715  0.86985653     0.13800
H634        H  0.15869948  0.46224984  0.82981985     0.14400
C635        C  0.88321181  0.54450638  0.13515145    -0.15200
C636        C  0.88854768  0.57991118  0.12839387    -0.30400
H637        H  0.86672119  0.53106197  0.15078778     0.13800
H638        H  0.90472804  0.59330302  0.11269048     0.14400
C639        C  0.90181907  0.27204487  0.11570630    -0.15200
C640        C  0.88208529  0.25658017  0.13541627    -0.30400
H641        H  0.91061861  0.25478912  0.10500678     0.13800
H642        H  0.87342521  0.27385139  0.14615951     0.14400
C643        C  0.61602926  0.87401610  0.85788337    -0.15200
C644        C  0.58286515  0.87220929  0.84979008    -0.30400
H645        H  0.62732506  0.88686759  0.87459109     0.13800
H646        H  0.57141254  0.85867869  0.83321646     0.14400
C647        C  0.43117926  0.10269406  0.12931282    -0.15200
C648        C  0.39758118  0.09789115  0.11994597    -0.30400
H649        H  0.44042492  0.11657509  0.14602125     0.13800
H650        H  0.38823713  0.08407108  0.10325476     0.14400
C651        C  0.74386219  0.10403763  0.12125590    -0.15200
C652        C  0.71286498  0.10637095  0.12979737    -0.30400
H653        H  0.74307545  0.09391964  0.10383602     0.13800
H654        H  0.71416505  0.11695864  0.14717443     0.14400
C655        C  0.06973014  0.81065066  0.79844212    -0.15200
C656        C  0.05423354  0.78993771  0.77912379    -0.30400
H657        H  0.05208728  0.81869405  0.80932913     0.13800
H658        H  0.07175528  0.78116549  0.76861334     0.14400
C659        C  0.23061976  0.94952683  0.79370071    -0.15200
C660        C  0.23006466  0.98034731  0.80380883    -0.30400
H661        H  0.24325400  0.95283657  0.77670304     0.13800
H662        H  0.21672339  0.97678744  0.82065168     0.14400
C663        C  0.13221972  0.72407421  0.84638065    -0.15200
C664        C  0.12073988  0.71360013  0.86814847    -0.30400
H665        H  0.13112912  0.70227589  0.83429982     0.13800
H666        H  0.12130829  0.73519365  0.88023825     0.14400
C667        C  0.30418630  0.87901903  0.86513066    -0.15200
C668        C  0.29016027  0.86175954  0.84472500    -0.30400
H669        H  0.28625662  0.88681338  0.87596609     0.13800
H670        H  0.30806088  0.85428877  0.83368117     0.14400
C671        C  0.39945024  0.45211053  0.47344737    -0.15200
C672        C  0.38765594  0.43409640  0.45306540    -0.30400
H673        H  0.37923642  0.45720522  0.48391656     0.13800
H674        H  0.40819132  0.42985596  0.44232473     0.14400
C675        C  0.46308294  0.38315442  0.53436004    -0.15200
C676        C  0.46215186  0.35153377  0.52428021    -0.30400
H677        H  0.45092760  0.38071196  0.55142972     0.13800
H678        H  0.47448522  0.35435154  0.50720396     0.14400
C679        C  0.61767802  0.52777930  0.53143076    -0.15200
C680        C  0.64585925  0.52083671  0.52301216    -0.30400
H681        H  0.62212749  0.54300962  0.54767503     0.13800
H682        H  0.64155959  0.50590322  0.50664793     0.14400
C683        C  0.55057319  0.62634385  0.47315702    -0.15200
C684        C  0.55387455  0.59544432  0.46564604    -0.30400
H685        H  0.53690197  0.62472653  0.48969053     0.13800
H686        H  0.56711732  0.59675095  0.44903630     0.14400
C687        C  0.31356282  0.42668763  0.86918075    -0.15200
C688        C  0.30240174  0.43445834  0.84910008    -0.30400
H689        H  0.29342764  0.39970181  0.87843246     0.13800
H690        H  0.32240457  0.46136630  0.83979077     0.14400
C691        C  0.60591202  0.70472566  0.86996081    -0.15200
C692        C  0.59938403  0.71762687  0.85009689    -0.30400
H693        H  0.63288867  0.72359370  0.87952359     0.13800
H694        H  0.57249223  0.69878032  0.84050184     0.14400
C695        C  0.74096841  0.58733302  0.12998748    -0.15200
C696        C  0.70857390  0.55470247  0.13796852    -0.30400
H697        H  0.73979705  0.59994659  0.11370459     0.13800
H698        H  0.70993887  0.54238810  0.15433751     0.14400
C699        C  0.43081825  0.27898911  0.12771045    -0.15200
C700        C  0.39905468  0.24857061  0.11764074    -0.30400
H701        H  0.43959661  0.27495864  0.14462471     0.13800
H702        H  0.39012969  0.25229693  0.10071861     0.14400
loop_ 
_geom_bond_atom_site_label_1 
_geom_bond_atom_site_label_2 
_geom_bond_distance 
_geom_bond_site_symmetry_2 
_ccdc_geom_bond_type 
N1            N2   1.321       .  A
N1            C5   1.343       .  A
N1           Cu9   2.065       .  S
N2            C3   1.349       .  A
N2           Cu8   2.085       .  S
C3            C4   1.390       .  A
C3            H6   1.081       .  S
C4            C5   1.380       .  A
C4          C696   1.479       .  S
C5            H7   1.082       .  S
Cu8          N11   2.086       .  S
Cu9          N19   2.065       .  S
Cu10         N12   2.085       .  S
Cu10         N18   2.085       .  S
N11          N12   1.325       .  A
N11          C15   1.347       .  A
N12          C13   1.345       .  A
C13          C14   1.383       .  A
C13          H16   1.082       .  S
C14          C15   1.383       .  A
C14          C38   1.474   1_554  S
C15          H17   1.082       .  S
N18          N19   1.321       .  A
N18          C22   1.349       .  A
N19          C20   1.342       .  A
C20          C21   1.380       .  A
C20          H23   1.082       .  S
C21          C22   1.390       .  A
C21         C699   1.480       .  S
C22          H24   1.081       .  S
N25          N26   1.322       .  A
N25          C29   1.345       .  A
N25         Cu33   2.075       .  S
N26          C27   1.344       .  A
N26         Cu32   2.070       .  S
C27          C28   1.381       .  A
C27          H30   1.082       .  S
C28          C29   1.387       .  A
C28         C687   1.477       .  S
C29          H31   1.081       .  S
Cu32         N35   2.071       .  S
Cu33         N43   2.076       .  S
Cu34         N36   2.079       .  S
Cu34         N42   2.079       .  S
N35          N36   1.322       .  A
N35          C39   1.344       .  A
N36          C37   1.347       .  A
C37          C38   1.385       .  A
C37          H40   1.082       .  S
C38          C39   1.383       .  A
C39          H41   1.082       .  S
N42          N43   1.322       .  A
N42          C46   1.346       .  A
N43          C44   1.345       .  A
C44          C45   1.387       .  A
C44          H47   1.081       .  S
C45          C46   1.383       .  A
C45         C691   1.481       .  S
C46          H48   1.082       .  S
O49         Cu57   1.996       .  S
O49          C59   1.277       .  A
O50         Cu57   1.998       .  S
O50          C60   1.275       .  A
O51         Cu57   2.015       .  S
O51          C61   1.280       .  A
O52         Cu57   2.015       .  S
O52          C62   1.279       .  A
O53         Cu58   1.990       .  S
O53          C62   1.274       .  A
O54         Cu58   1.991       .  S
O54          C61   1.274       .  A
O55         Cu58   2.017       .  S
O55          C60   1.280       .  A
O56         Cu58   2.017       .  S
O56          C59   1.278       .  A
Cu57        Cu58   2.376       .  S
C59         C675   1.475       .  S
C60         C684   1.474       .  S
C61         C679   1.469       .  S
C62         C671   1.468       .  S
O63         Cu71   1.990       .  S
O63          C73   1.275       .  A
O64         Cu71   1.995       .  S
O64          C74   1.275       .  A
O65         Cu71   2.011       .  S
O65          C75   1.277       .  A
O66         Cu71   2.008       .  S
O66          C76   1.279       .  A
O67         Cu72   2.006       .  S
O67          C76   1.276       .  A
O68         Cu72   2.006       .  S
O68          C75   1.278       .  A
O69         Cu72   2.019       .  S
O69          C74   1.280       .  A
O70         Cu72   2.019       .  S
O70          C73   1.280       .  A
Cu71        Cu72   2.376       .  S
C73         C663   1.469       .  S
C74         C659   1.472       .  S
C75         C668   1.476       .  S
C76         C655   1.474       .  S
N77          N78   1.320       .  A
N77          C81   1.344       .  A
N77         Cu85   2.064       .  S
N78          C79   1.345       .  A
N78         Cu84   2.071       .  S
C79          C80   1.388       .  A
C79          H82   1.081       .  S
C80          C81   1.381       .  A
C80         C647   1.476       .  S
C81          H83   1.082       .  S
Cu84         N87   2.072       .  S
Cu85         N95   2.065       .  S
Cu86         N88   2.085       .  S
Cu86         N94   2.085       .  S
N87          N88   1.324       .  A
N87          C91   1.343       .  A
N88          C89   1.348       .  A
C89          C90   1.385   1_554  A
C89          H92   1.082       .  S
C90          C91   1.381   1_556  A
C90         C114   1.472   1_545  S
C91          H93   1.082       .  S
N94          N95   1.322       .  A
N94          C98   1.348       .  A
N95          C96   1.342       .  A
C96          C97   1.379       .  A
C96          H99   1.082       .  S
C97          C98   1.388       .  A
C97         C652   1.476       .  S
C98         H100   1.081       .  S
N101        N102   1.323       .  A
N101        C105   1.343       .  A
N101       Cu109   2.071       .  S
N102        C103   1.347       .  A
N102       Cu108   2.079       .  S
C103        C104   1.387       .  A
C103        H106   1.081       .  S
C104        C105   1.380       .  A
C104        C644   1.476       .  S
C105        H107   1.082       .  S
Cu108       N111   2.079       .  S
Cu109       N119   2.071       .  S
Cu110       N112   2.072       .  S
Cu110       N118   2.071       .  S
N111        N112   1.323       .  A
N111        C115   1.347       .  A
N112        C113   1.344       .  A
C113        C114   1.382       .  A
C113        H116   1.082       .  S
C114        C115   1.384       .  A
C115        H117   1.082       .  S
N118        N119   1.321       .  A
N118        C122   1.344       .  A
N119        C120   1.346       .  A
C120        C121   1.387       .  A
C120        H123   1.081       .  S
C121        C122   1.382       .  A
C121        C667   1.476       .  S
C122        H124   1.082       .  S
N125        N126   1.322       .  A
N125        C129   1.346       .  A
N125       Cu133   2.079       .  S
N126        C127   1.347       .  A
N126       Cu132   2.084       .  S
C127        C128   1.388       .  A
C127        H130   1.081       .  S
C128        C129   1.383       .  A
C128        C635   1.483       .  S
C129        H131   1.082       .  S
Cu132       N135   2.084       .  S
Cu133       N143   2.079       .  S
Cu134       N136   2.079       .  S
Cu134       N142   2.079       .  S
N135        N136   1.323       .  A
N135        C139   1.346   1_655  A
N136        C137   1.347   1_655  A
C137        C138   1.383       .  A
C137        H140   1.082       .  S
C138        C139   1.385       .  A
C138        C162   1.475   1_554  S
C139        H141   1.082       .  S
N142        N143   1.322       .  A
N142        C146   1.347       .  A
N143        C144   1.345       .  A
C144        C145   1.387       .  A
C144        H147   1.081       .  S
C145        C146   1.384       .  A
C145        C639   1.482       .  S
C146        H148   1.082       .  S
N149        N150   1.322       .  A
N149        C153   1.345       .  A
N149       Cu157   2.065       .  S
N150        C151   1.347       .  A
N150       Cu156   2.092       .  S
C151        C152   1.391       .  A
C151        H154   1.081       .  S
C152        C153   1.381       .  A
C152        C632   1.483       .  S
C153        H155   1.082       .  S
Cu156       N159   2.092       .  S
Cu157       N167   2.065       .  S
Cu158       N160   2.072       .  S
Cu158       N166   2.071       .  S
N159        N160   1.324       .  A
N159        C163   1.348       .  A
N160        C161   1.345       .  A
C161        C162   1.382       .  A
C161        H164   1.082       .  S
C162        C163   1.386       .  A
C163        H165   1.082       .  S
N166        N167   1.321       .  A
N166        C170   1.347       .  A
N167        C168   1.341       .  A
C168        C169   1.385       .  A
C168        H171   1.081       .  S
C169        C170   1.383       .  A
C169        C664   1.478       .  S
C170        H172   1.082       .  S
O173       Cu181   2.007       .  S
O173        C183   1.279       .  A
O174       Cu181   2.005       .  S
O174        C184   1.276       .  A
O175       Cu181   2.009       .  S
O175        C185   1.277       .  A
O176       Cu181   2.013       .  S
O176        C186   1.279       .  A
O177       Cu182   2.016       .  S
O177        C186   1.278       .  A
O178       Cu182   2.019       .  S
O178        C185   1.279       .  A
O179       Cu182   2.014       .  S
O179        C184   1.280       .  A
O180       Cu182   2.015       .  S
O180        C183   1.277       .  A
Cu181      Cu182   2.374       .  S
C183        C651   1.478       .  S
C184        C623   1.475       .  S
C185        C640   1.478       .  S
C186        C628   1.479       .  S
N187        N188   1.322       .  A
N187        C191   1.348       .  A
N187       Cu195   2.080       .  S
N188        C189   1.341       .  A
N188       Cu194   2.065       .  S
C189        C190   1.378       .  A
C189        H192   1.082       .  S
C190        C191   1.388       .  A
C190        C615   1.474       .  S
C191        H193   1.082       .  S
Cu194       N197   2.065       .  S
Cu195       N205   2.081       .  S
Cu196       N198   2.066       .  S
Cu196       N204   2.067       .  S
N197        N198   1.320       .  A
N197        C201   1.344       .  A
N198        C199   1.344       .  A
C199        C200   1.383       .  A
C199        H202   1.082       .  S
C200        C201   1.383       .  A
C200        C224   1.470       .  S
C201        H203   1.082       .  S
N204        N205   1.323       .  A
N204        C208   1.343       .  A
N205        C206   1.345       .  A
C206        C207   1.387       .  A
C206        H209   1.081       .  S
C207        C208   1.379       .  A
C207        C619   1.476       .  S
C208        H210   1.082       .  S
N211        N212   1.321       .  A
N211        C215   1.345       .  A
N211       Cu219   2.077       .  S
N212        C213   1.348       .  A
N212       Cu218   2.079       .  S
C213        C214   1.385       .  A
C213        H216   1.082       .  S
C214        C215   1.388       .  A
C214        C611   1.485   1_565  S
C215        H217   1.081       .  S
Cu218       N221   2.079       .  S
Cu219       N229   2.077       .  S
Cu220       N222   2.075       .  S
Cu220       N228   2.075       .  S
N221        N222   1.324       .  A
N221        C225   1.345       .  A
N222        C223   1.345       .  A
C223        C224   1.382       .  A
C223        H226   1.082       .  S
C224        C225   1.383       .  A
C225        H227   1.082       .  S
N228        N229   1.322       .  A
N228        C232   1.348       .  A
N229        C230   1.343       .  A
C230        C231   1.381       .  A
C230        H233   1.082       .  S
C231        C232   1.387       .  A
C231        C607   1.478   1_455  S
C232        H234   1.082       .  S
N235        N236   1.322       .  A
N235        C239   1.343       .  A
N235       Cu243   2.062       .  S
N236        C237   1.347       .  A
N236       Cu242   2.088       .  S
C237        C238   1.390       .  A
C237        H240   1.081       .  S
C238        C239   1.379       .  A
C238        C603   1.479       .  S
C239        H241   1.082       .  S
Cu242       N245   2.087       .  S
Cu243       N253   2.061       .  S
Cu244       N246   2.064       .  S
Cu244       N252   2.063       .  S
N245        N246   1.323       .  A
N245        C249   1.350       .  A
N246        C247   1.340       .  A
C247        C248   1.380       .  A
C247        H250   1.082       .  S
C248        C249   1.386       .  A
C248        C272   1.472       .  S
C249        H251   1.082       .  S
N252        N253   1.320       .  A
N252        C256   1.345       .  A
N253        C254   1.341       .  A
C254        C255   1.386       .  A
C254        H257   1.081       .  S
C255        C256   1.382       .  A
C255        C672   1.475       .  S
C256        H258   1.082       .  S
N259        N260   1.319       .  A
N259        C263   1.340       .  A
N259       Cu267   2.058       .  S
N260        C261   1.345       .  A
N260       Cu266   2.061       .  S
C261        C262   1.383       .  A
C261        H264   1.082       .  S
C262        C263   1.386       .  A
C262        C599   1.475       .  S
C263        H265   1.081       .  S
Cu266       N269   2.062       .  S
Cu267       N277   2.060       .  S
Cu268       N270   2.089       .  S
Cu268       N276   2.088       .  S
N269        N270   1.323       .  A
N269        C273   1.340       .  A
N270        C271   1.350       .  A
C271        C272   1.387       .  A
C271        H274   1.082       .  S
C272        C273   1.379       .  A
C273        H275   1.082       .  S
N276        N277   1.322       .  A
N276        C280   1.347       .  A
N277        C278   1.342       .  A
C278        C279   1.378       .  A
C278        H281   1.082       .  S
C279        C280   1.389       .  A
C279        C624   1.477   1_455  S
C280        H282   1.081       .  S
O283       Cu291   1.994       .  S
O283        C293   1.275       .  A
O284       Cu291   2.000       .  S
O284        C294   1.276       .  A
O285       Cu291   2.007       .  S
O285        C295   1.277       .  A
O286       Cu291   2.010       .  S
O286        C296   1.277       .  A
O287       Cu292   2.021       .  S
O287        C296   1.281       .  A
O288       Cu292   2.026       .  S
O288        C295   1.280       .  A
O289       Cu292   2.013       .  S
O289        C294   1.279       .  A
O290       Cu292   2.010       .  S
O290        C293   1.278       .  A
Cu291      Cu292   2.375       .  S
C293        C600   1.468       .  S
C294        C648   1.473       .  S
C295        C612   1.479       .  S
C296        C700   1.480       .  S
O297       Cu305   2.000   1_455  S
O297        C307   1.275       .  A
O298       Cu305   1.995       .  S
O298        C308   1.277       .  A
O299       Cu305   2.019   1_455  S
O299        C309   1.280       .  A
O300       Cu305   2.020       .  S
O300        C310   1.280       .  A
O301       Cu306   1.989       .  S
O301        C310   1.275   1_455  A
O302       Cu306   1.993       .  S
O302        C309   1.274       .  A
O303       Cu306   2.026       .  S
O303        C308   1.279   1_455  A
O304       Cu306   2.024       .  S
O304        C307   1.281       .  A
Cu305      Cu306   2.375   1_655  S
C307        C604   1.476       .  S
C308        C591   1.480       .  S
C309        C620   1.472       .  S
C310        C595   1.469       .  S
N311        N312   1.322       .  A
N311        C315   1.340       .  A
N311       Cu319   2.062       .  S
N312        C313   1.350       .  A
N312       Cu318   2.087       .  S
C313        C314   1.389       .  A
C313        H316   1.082       .  S
C314        C315   1.378       .  A
C314        C592   1.475       .  S
C315        H317   1.082       .  S
Cu318       N321   2.088       .  S
Cu319       N329   2.061       .  S
Cu320       N322   2.069       .  S
Cu320       N328   2.068       .  S
N321        N322   1.323       .  A
N321        C325   1.345       .  A
N322        C323   1.346       .  A
C323        C324   1.381       .  A
C323        H326   1.082       .  S
C324        C325   1.385       .  A
C324        C348   1.473       .  S
C325        H327   1.082       .  S
N328        N329   1.320       .  A
N328        C332   1.342       .  A
N329        C330   1.344       .  A
C330        C331   1.381       .  A
C330        H333   1.082       .  S
C331        C332   1.387       .  A
C331        C680   1.475       .  S
C332        H334   1.081       .  S
N335        N336   1.324       .  A
N335        C339   1.343       .  A
N335       Cu343   2.071       .  S
N336        C337   1.349       .  A
N336       Cu342   2.093       .  S
C337        C338   1.388       .  A
C337        H340   1.081       .  S
C338        C339   1.379       .  A
C338        C587   1.478       .  S
C339        H341   1.082       .  S
Cu342       N345   2.093       .  S
Cu343       N353   2.070       .  S
Cu344       N346   2.058       .  S
Cu344       N352   2.058       .  S
N345        N346   1.322       .  A
N345        C349   1.349       .  A
N346        C347   1.341       .  A
C347        C348   1.379       .  A
C347        H350   1.082       .  S
C348        C349   1.389       .  A
C349        H351   1.082       .  S
N352        N353   1.320       .  A
N352        C356   1.342       .  A
N353        C354   1.346       .  A
C354        C355   1.387   1_655  A
C354        H357   1.081       .  S
C355        C356   1.380   1_455  A
C355        C656   1.474       .  S
C356        H358   1.082   1_655  S
O359       Cu367   2.024       .  S
O359        C369   1.280       .  A
O360       Cu367   2.019       .  S
O360        C370   1.280       .  A
O361       Cu367   2.010       .  S
O361        C371   1.277       .  A
O362       Cu367   2.009       .  S
O362        C372   1.279       .  A
O363       Cu368   2.014       .  S
O363        C372   1.277       .  A
O364       Cu368   2.010       .  S
O364        C371   1.279       .  A
O365       Cu368   1.999       .  S
O365        C370   1.275       .  A
O366       Cu368   2.001       .  S
O366        C369   1.276       .  A
Cu367      Cu368   2.374       .  S
C369        C692   1.476       .  S
C370        C583   1.473       .  S
C371        C643   1.477       .  S
C372        C588   1.479       .  S
N373        N374   1.322       .  A
N373        C377   1.347       .  A
N373       Cu381   2.078       .  S
N374        C375   1.341       .  A
N374       Cu380   2.067       .  S
C375        C376   1.385       .  A
C375        H378   1.081       .  S
C376        C377   1.384       .  A
C376        C596   1.479       .  S
C377        H379   1.082       .  S
Cu380       N383   2.066       .  S
Cu381       N391   2.078       .  S
Cu382       N384   2.068       .  S
Cu382       N390   2.069       .  S
N383        N384   1.321       .  A
N383        C387   1.346       .  A
N384        C385   1.343       .  A
C385        C386   1.382       .  A
C385        H388   1.082       .  S
C386        C387   1.383       .  A
C386        C410   1.469       .  S
C387        H389   1.082       .  S
N390        N391   1.322       .  A
N390        C394   1.344       .  A
N391        C392   1.346       .  A
C392        C393   1.388       .  A
C392        H395   1.081       .  S
C393        C394   1.381       .  A
C393        C579   1.478       .  S
C394        H396   1.082       .  S
N397        N398   1.320       .  A
N397        C401   1.345       .  A
N397       Cu405   2.066       .  S
N398        C399   1.344       .  A
N398       Cu404   2.069       .  S
C399        C400   1.388       .  A
C399        H402   1.081   1_545  S
C400        C401   1.382       .  A
C400        C584   1.479   1_545  S
C401        H403   1.082       .  S
Cu404       N407   2.069       .  S
Cu405       N415   2.066       .  S
Cu406       N408   2.076       .  S
Cu406       N414   2.076       .  S
N407        N408   1.323       .  A
N407        C411   1.342       .  A
N408        C409   1.346       .  A
C409        C410   1.384       .  A
C409        H412   1.082       .  S
C410        C411   1.381       .  A
C411        H413   1.082       .  S
N414        N415   1.322       .  A
N414        C418   1.346   1_655  A
N415        C416   1.343       .  A
C416        C417   1.379   1_655  A
C416        H419   1.082       .  S
C417        C418   1.387       .  A
C417        C575   1.475       .  S
C418        H420   1.081       .  S
O421       Cu429   2.020       .  S
O421        C431   1.279       .  A
O422       Cu429   2.019       .  S
O422        C432   1.278       .  A
O423       Cu429   2.021       .  S
O423        C433   1.280       .  A
O424       Cu429   2.021       .  S
O424        C434   1.278       .  A
O425       Cu430   2.004       .  S
O425        C434   1.278       .  A
O426       Cu430   2.008       .  S
O426        C433   1.276       .  A
O427       Cu430   2.018       .  S
O427        C432   1.280       .  A
O428       Cu430   2.016       .  S
O428        C431   1.278       .  A
Cu429      Cu430   2.372       .  S
C431        C636   1.481       .  S
C432        C571   1.483       .  S
C433        C695   1.479       .  S
C434        C608   1.480       .  S
N435        N436   1.321       .  A
N435        C439   1.342       .  A
N435       Cu443   2.063       .  S
N436        C437   1.348       .  A
N436       Cu442   2.082       .  S
C437        C438   1.386       .  A
C437        H440   1.082       .  S
C438        C439   1.385       .  A
C438        C568   1.481       .  S
C439        H441   1.081       .  S
Cu442       N445   2.083       .  S
Cu443       N453   2.063       .  S
Cu444       N446   2.083       .  S
Cu444       N452   2.082       .  S
N445        N446   1.324       .  A
N445        C449   1.344       .  A
N446        C447   1.349       .  A
C447        C448   1.385       .  A
C447        H450   1.082       .  S
C448        C449   1.384       .  A
C448        C472   1.476       .  S
C449        H451   1.082       .  S
N452        N453   1.322       .  A
N452        C456   1.346       .  A
N453        C454   1.343       .  A
C454        C455   1.379       .  A
C454        H457   1.082       .  S
C455        C456   1.388       .  A
C455        C683   1.477       .  S
C456        H458   1.081       .  S
N459        N460   1.324       .  A
N459        C463   1.344       .  A
N459       Cu467   2.079       .  S
N460        C461   1.350       .  A
N460       Cu466   2.097       .  S
C461        C462   1.390       .  A
C461        H464   1.081       .  S
C462        C463   1.381       .  A
C462        C572   1.483       .  S
C463        H465   1.082       .  S
Cu466       N469   2.097       .  S
Cu467       N477   2.078       .  S
Cu468       N470   2.068       .  S
Cu468       N476   2.068       .  S
N469        N470   1.323       .  A
N469        C473   1.351       .  A
N470        C471   1.342       .  A
C471        C472   1.380       .  A
C471        H474   1.082       .  S
C472        C473   1.389       .  A
C473        H475   1.082       .  S
N476        N477   1.320       .  A
N476        C480   1.344       .  A
N477        C478   1.347       .  A
C478        C479   1.389       .  A
C478        H481   1.081       .  S
C479        C480   1.382       .  A
C479        C627   1.480   1_565  S
C480        H482   1.082       .  S
O483       Cu491   2.005   1_545  S
O483        C493   1.276       .  A
O484       Cu491   1.999       .  S
O484        C494   1.278       .  A
O485       Cu491   2.016   1_545  S
O485        C495   1.280       .  A
O486       Cu491   2.019       .  S
O486        C496   1.279       .  A
O487       Cu492   2.002       .  S
O487        C496   1.276       .  A
O488       Cu492   2.005       .  S
O488        C495   1.276   1_565  A
O489       Cu492   2.018       .  S
O489        C494   1.278       .  A
O490       Cu492   2.018       .  S
O490        C493   1.280   1_565  A
Cu491      Cu492   2.374       .  S
C493        C580   1.476       .  S
C494        C616   1.477       .  S
C495        C563   1.476       .  S
C496        C567   1.474       .  S
N497        N498   1.322       .  A
N497        C501   1.343       .  A
N497       Cu505   2.067       .  S
N498        C499   1.347       .  A
N498       Cu504   2.084       .  S
C499        C500   1.388       .  A
C499        H502   1.081       .  S
C500        C501   1.379       .  A
C500        C564   1.477       .  S
C501        H503   1.082       .  S
Cu504       N507   2.084       .  S
Cu505       N515   2.067       .  S
Cu506       N508   2.064       .  S
Cu506       N514   2.064       .  S
N507        N508   1.323       .  A
N507        C511   1.347       .  A
N508        C509   1.343       .  A
C509        C510   1.380       .  A
C509        H512   1.082       .  S
C510        C511   1.385       .  A
C510        C534   1.470       .  S
C511        H513   1.082       .  S
N514        N515   1.320       .  A
N514        C518   1.345       .  A
N515        C516   1.343       .  A
C516        C517   1.381       .  A
C516        H519   1.082       .  S
C517        C518   1.385       .  A
C517        C676   1.473       .  S
C518        H520   1.081       .  S
N521        N522   1.322       .  A
N521        C525   1.342       .  A
N521       Cu529   2.073       .  S
N522        C523   1.349       .  A
N522       Cu528   2.080       .  S
C523        C524   1.387       .  A
C523        H526   1.082       .  S
C524        C525   1.381       .  A
C524        C560   1.477       .  S
C525        H527   1.082       .  S
Cu528       N531   2.080       .  S
Cu529       N539   2.072       .  S
Cu530       N532   2.068       .  S
Cu530       N538   2.067       .  S
N531        N532   1.323       .  A
N531        C535   1.344       .  A
N532        C533   1.345       .  A
C533        C534   1.381       .  A
C533        H536   1.082       .  S
C534        C535   1.384       .  A
C535        H537   1.082       .  S
N538        N539   1.321       .  A
N538        C542   1.343       .  A
N539        C540   1.346       .  A
C540        C541   1.383       .  A
C540        H543   1.082       .  S
C541        C542   1.387       .  A
C541        C660   1.478   1_545  S
C542        H544   1.081       .  S
O545       Cu553   2.003       .  S
O545        C555   1.276       .  A
O546       Cu553   2.002       .  S
O546        C556   1.276       .  A
O547       Cu553   2.032       .  S
O547        C557   1.280       .  A
O548       Cu553   2.034       .  S
O548        C558   1.282       .  A
O549       Cu554   1.997       .  S
O549        C558   1.275       .  A
O550       Cu554   1.993       .  S
O550        C557   1.277       .  A
O551       Cu554   2.012       .  S
O551        C556   1.279       .  A
O552       Cu554   2.011       .  S
O552        C555   1.279       .  A
Cu553      Cu554   2.374       .  S
C555        C576   1.474       .  S
C556        C688   1.474       .  S
C557        C559   1.481       .  S
C558        C631   1.478       .  S
C559        C560   1.346       .  D
C559        H561   1.085       .  S
C560        H562   1.087       .  S
C563        C564   1.342       .  D
C563        H565   1.085       .  S
C564        H566   1.087       .  S
C567        C568   1.345       .  D
C567        H569   1.085       .  S
C568        H570   1.086       .  S
C571        C572   1.345       .  D
C571        H573   1.086       .  S
C572        H574   1.087       .  S
C575        C576   1.342       .  D
C575        H577   1.087       .  S
C576        H578   1.085       .  S
C579        C580   1.343       .  D
C579        H581   1.086       .  S
C580        H582   1.085       .  S
C583        C584   1.343       .  D
C583        H585   1.085       .  S
C584        H586   1.086       .  S
C587        C588   1.344       .  D
C587        H589   1.087       .  S
C588        H590   1.086       .  S
C591        C592   1.345       .  D
C591        H593   1.086       .  S
C592        H594   1.087       .  S
C595        C596   1.342       .  D
C595        H597   1.084       .  S
C596        H598   1.086       .  S
C599        C600   1.342       .  D
C599        H601   1.086       .  S
C600        H602   1.084       .  S
C603        C604   1.342       .  D
C603        H605   1.087       .  S
C604        H606   1.085       .  S
C607        C608   1.345       .  D
C607        H609   1.087       .  S
C608        H610   1.086       .  S
C611        C612   1.346       .  D
C611        H613   1.086       .  S
C612        H614   1.085       .  S
C615        C616   1.343       .  D
C615        H617   1.087       .  S
C616        H618   1.086       .  S
C619        C620   1.341       .  D
C619        H621   1.087       .  S
C620        H622   1.085       .  S
C623        C624   1.342       .  D
C623        H625   1.085       .  S
C624        H626   1.087       .  S
C627        C628   1.345       .  D
C627        H629   1.086       .  S
C628        H630   1.085       .  S
C631        C632   1.343       .  D
C631        H633   1.085       .  S
C632        H634   1.086       .  S
C635        C636   1.346       .  D
C635        H637   1.086       .  S
C636        H638   1.085       .  S
C639        C640   1.345       .  D
C639        H641   1.086       .  S
C640        H642   1.085       .  S
C643        C644   1.343       .  D
C643        H645   1.086       .  S
C644        H646   1.087       .  S
C647        C648   1.342       .  D
C647        H649   1.087       .  S
C648        H650   1.085       .  S
C651        C652   1.343       .  D
C651        H653   1.086       .  S
C652        H654   1.087       .  S
C655        C656   1.342       .  D
C655        H657   1.085       .  S
C656        H658   1.087       .  S
C659        C660   1.343       .  D
C659        H661   1.085       .  S
C660        H662   1.086       .  S
C663        C664   1.342       .  D
C663        H665   1.085       .  S
C664        H666   1.086       .  S
C667        C668   1.344       .  D
C667        H669   1.087       .  S
C668        H670   1.085       .  S
C671        C672   1.341       .  D
C671        H673   1.085       .  S
C672        H674   1.086       .  S
C675        C676   1.344       .  D
C675        H677   1.085       .  S
C676        H678   1.087       .  S
C679        C680   1.341       .  D
C679        H681   1.085       .  S
C680        H682   1.086       .  S
C683        C684   1.341       .  D
C683        H685   1.087       .  S
C684        H686   1.085       .  S
C687        C688   1.343       .  D
C687        H689   1.086       .  S
C688        H690   1.085       .  S
C691        C692   1.344       .  D
C691        H693   1.086       .  S
C692        H694   1.085       .  S
C695        C696   1.343       .  D
C695        H697   1.086       .  S
C696        H698   1.087       .  S
C699        C700   1.343       .  D
C699        H701   1.087       .  S
C700        H702   1.086       .  S
