geometry optimzed in LAMMPS
_audit_creation_date              2020-11-30 
_audit_creation_method            'lammps2cif' 
_symmetry_space_group_name_H-M    'P1' 
_symmetry_Int_Tables_number       1 
_symmetry_cell_setting            triclinic 
loop_ 
_symmetry_equiv_pos_as_xyz 
  x,y,z 
_cell_length_a                    46.34377028 
_cell_length_b                    45.88908060413847 
_cell_length_c                    56.16623511036764 
_cell_angle_alpha                 88.90638661358534 
_cell_angle_beta                  90.70506614746057 
_cell_angle_gamma                 118.38051516878502 
loop_ 
_atom_site_label 
_atom_site_type_symbol 
_atom_site_fract_x 
_atom_site_fract_y 
_atom_site_fract_z 
_atom_site_charge 
O1          O  0.27688713  0.17917280  0.80684830    -0.78600
C2          C  0.29065300  0.09274885  0.79581591     0.82400
O3          O  0.29208355  0.14894671  0.88516582    -0.79800
O4          O  0.37071894  0.12246207  0.84875763    -0.81200
O5          O  0.39469876  0.21749332  0.79577743    -0.81000
O6          O  0.32464975  0.22347358  0.79874480    -0.79700
Zn7        Zn  0.28805398  0.14719372  0.82442149     1.55700
O8          O  0.39415790  0.16891420  0.79901905    -0.81100
Cd9        Cd  0.35710059  0.21263363  0.81803261     1.59700
Cd10       Cd  0.33835051  0.17017996  0.86893581     1.59600
O11         O  0.37798448  0.24752640  0.84433269    -0.81000
O12         O  0.33403929  0.16757952  0.83319669    -1.91600
Cd13       Cd  0.35433112  0.14096129  0.82094850     1.59900
O14         O  0.36511076  0.21954664  0.87880296    -0.81000
O15         O  0.32045576  0.10181218  0.80133678    -0.79700
C16         C  0.26350144  0.13373259  0.87587202     0.82900
C17         C  0.29344071  0.20768446  0.79725261     0.82500
O18         O  0.27582389  0.10808846  0.80327393    -0.78600
C19         C  0.40654525  0.19835879  0.79057929     0.83300
O20         O  0.25956210  0.13131613  0.85338866    -0.78700
C21         C  0.37913390  0.24683570  0.86700998     0.83500
C22         C  0.37299436  0.12647339  0.87123203     0.83800
O23         O  0.36276493  0.14448280  0.88144909    -0.78700
C24         C  0.17155051  0.37233138  0.71329829     0.86300
C25         C  0.18949122  0.35482554  0.72477610    -0.53900
C26         C  0.17980991  0.32357792  0.71690271     0.09300
C27         C  0.15139779  0.31170401  0.69873892     0.20200
C28         C  0.17460075  0.36967093  0.68636727    -0.54600
C29         C  0.16457171  0.33824399  0.67876804     0.09400
C30         C  0.13512744  0.34863930  0.71841791    -0.54200
C31         C  0.12466152  0.31701082  0.71097954     0.09900
H32         H  0.20851572  0.36653478  0.73815981     0.14500
H33         H  0.14292908  0.28613322  0.69238009     0.00200
H34         H  0.18574123  0.39107941  0.67444940     0.14800
H35         H  0.11847830  0.35515939  0.72732348     0.14500
C36         C  0.49911266  0.46689408  0.95107411     0.86300
C37         C  0.03559450  0.48999242  0.94643815    -0.53900
C38         C  0.04625411  0.02017252  0.95571396     0.09300
C39         C  0.02011263  0.02592399  0.96852915     0.20200
C40         C  0.49499301  0.46772598  0.97802376    -0.54600
C41         C  0.00536796  0.99786546  0.98745603     0.09400
C42         C  0.48286631  0.48643539  0.94020742    -0.54200
C43         C  0.49195372  0.01611117  0.95005418     0.09900
H44         H  0.05166128  0.48346144  0.93672373     0.14500
H45         H  0.02934420  0.05111661  0.97568903     0.00200
H46         H  0.48267720  0.44544647  0.98900698     0.14800
H47         H  0.46352500  0.47615706  0.92687923     0.14500
O48         O  0.44311291  0.49431645  0.53478025    -0.78600
C49         C  0.04172476  0.07848348  0.53816779     0.82400
O50         O  0.47705526  0.02778956  0.45264428    -0.79800
O51         O  0.08220623  0.03639745  0.48539630    -0.81200
O52         O  0.01179157  0.44268895  0.53053190    -0.81000
O53         O  0.44338653  0.44601258  0.53401263    -0.79700
Zn54       Zn  0.47930981  0.02473273  0.51314115     1.55700
O55         O  0.05758244  0.49030230  0.53403426    -0.81100
Cd56       Cd  0.48157622  0.45529422  0.51146540     1.59700
Cd57       Cd  0.50322761  0.50362719  0.46434054     1.59600
O58         O  0.46439687  0.42332071  0.48312105    -0.81000
O59         O  0.50302869  0.50235033  0.50015275    -1.91600
Cd60       Cd  0.04960982  0.02343342  0.51341821     1.59900
O61         O  0.48015726  0.45591727  0.45079648    -0.81000
O62         O  0.05954763  0.06544160  0.53244726    -0.79700
C63         C  0.46069129  0.03948655  0.46326370     0.82900
C64         C  0.43178745  0.46422585  0.54170909     0.82500
O65         O  0.01158983  0.06554577  0.53205225    -0.78600
C66         C  0.04098121  0.45923432  0.53827259     0.83300
O67         O  0.45937438  0.03921828  0.48597957    -0.78700
C68         C  0.46622647  0.42716843  0.46054944     0.83500
C69         C  0.07964086  0.03621344  0.46277125     0.83800
O70         O  0.05187936  0.02604201  0.45240904    -0.81100
C71         C  0.34908044  0.20909896  0.37671678     0.86300
C72         C  0.36476523  0.18818032  0.38639091    -0.53900
C73         C  0.34905084  0.15572342  0.38009033     0.09300
C74         C  0.31805552  0.14644240  0.36486732     0.20200
C75         C  0.34612665  0.20348037  0.34989322    -0.54600
C76         C  0.33040981  0.17091522  0.34350638     0.09400
C77         C  0.31387846  0.19017312  0.38617063    -0.54200
C78         C  0.29740234  0.15753772  0.37995776     0.09900
H79         H  0.38591679  0.19762250  0.39816753     0.14500
H80         H  0.30518354  0.11998523  0.35975341     0.00200
H81         H  0.35827195  0.22358025  0.33702153     0.14800
H82         H  0.30325125  0.20100491  0.39789956     0.14500
C83         C  0.21191759  0.34415189  0.62226626     0.86300
C84         C  0.19443167  0.36164249  0.61013727    -0.53900
C85         C  0.16209102  0.34892533  0.61572387     0.09300
C86         C  0.14987307  0.31964063  0.63363672     0.20200
C87         C  0.20592341  0.34508144  0.64893735    -0.54600
C88         C  0.17372010  0.33279896  0.65487643     0.09400
C89         C  0.19055107  0.30729765  0.61599715    -0.54200
C90         C  0.15814415  0.29450019  0.62183702     0.09900
H91         H  0.20707115  0.38295977  0.59833483     0.14500
H92         H  0.12369701  0.30938358  0.63865232     0.00200
H93         H  0.22558663  0.35616493  0.66193194     0.14800
H94         H  0.19929198  0.29199835  0.60758111     0.14500
O95         O  0.17349513  0.27021028  0.19575173    -0.78600
C96         C  0.08887930  0.28452402  0.20244691     0.82400
O97         O  0.13995189  0.28742511  0.11471462    -0.79800
O98         O  0.12271883  0.37068635  0.15404370    -0.81200
O99         O  0.21994482  0.38988878  0.19905829    -0.81000
O100        O  0.22066422  0.31681573  0.19806958    -0.79700
Zn101      Zn  0.14402578  0.28169201  0.17513089     1.55700
O102        O  0.17140124  0.38845370  0.20242725    -0.81100
Cd103      Cd  0.21080864  0.34967180  0.17795796     1.59700
Cd104      Cd  0.16379175  0.33344592  0.13054385     1.59600
O105        O  0.24278990  0.36557175  0.14940508    -0.81000
O106        O  0.16452754  0.32833049  0.16607761    -1.91600
Cd107      Cd  0.14048262  0.35031072  0.18021561     1.59900
O108        O  0.21109725  0.35717194  0.11727390    -0.81000
O109        O  0.10057709  0.31569555  0.19930581    -0.79700
C110        C  0.13044045  0.25853169  0.12356482     0.82900
C111        C  0.20291933  0.28620089  0.20326820     0.82500
O112        O  0.10284341  0.26898798  0.19376866    -0.78600
C113        C  0.20197025  0.40145460  0.20732625     0.83300
O114        O  0.13197758  0.25357461  0.14584046    -0.78700
C115        C  0.23920394  0.36738094  0.12696022     0.83500
C116        C  0.12521686  0.37295698  0.13139351     0.83800
O117        O  0.14042632  0.36058646  0.12010035    -0.81100
C118        C  0.45978529  0.48497525  0.04542975     0.86300
C119        C  0.47815490  0.02009208  0.05348265    -0.53900
C120        C  0.00969990  0.03724038  0.04695113     0.09300
C121        C  0.02162360  0.01653092  0.03256120     0.20200
C122        C  0.46480853  0.48661131  0.01829468    -0.54600
C123        C  0.99664091  0.00164831  0.01205766     0.09400
C124        C  0.48046036  0.46927703  0.05491735    -0.54200
C125        C  0.01376068  0.48732549  0.04786829     0.09900
H126        H  0.46596890  0.03102412  0.06357572     0.14500
H127        H  0.04749799  0.03000436  0.02660836     0.00200
H128        H  0.44549194  0.47451332  0.00528423     0.14800
H129        H  0.47033198  0.44695438  0.06597915     0.14500
C130        C  0.36931045  0.16706982  0.28478396     0.86300
C131        C  0.34977538  0.18235265  0.27244939    -0.53900
C132        C  0.31821202  0.17000789  0.28008927     0.09300
C133        C  0.30919993  0.14418671  0.30048003     0.20200
C134        C  0.36710866  0.17334468  0.31133360    -0.54600
C135        C  0.33591054  0.16173520  0.31950814     0.09400
C136        C  0.34803009  0.12956002  0.28235231    -0.54200
C137        C  0.31654648  0.11738779  0.29025557     0.09900
H138        H  0.36057257  0.20213878  0.25922236     0.14500
H139        H  0.28395224  0.13477572  0.30734774     0.00200
H140        H  0.38774754  0.18723656  0.32295808     0.14800
H141        H  0.35683187  0.11404496  0.27411254     0.14500
C142        C  0.42483362  0.46669311  0.05546507    -0.20000
C143        C  0.42020604  0.46464990  0.08048731     0.36200
C144        C  0.38876633  0.44660099  0.09010500    -0.26000
C145        C  0.36127650  0.43001038  0.07545995     0.02600
C146        C  0.36525039  0.43201927  0.05055611     0.27400
C147        C  0.39684637  0.45049028  0.04078717    -0.25100
N148        N  0.44759779  0.48070040  0.09634604    -0.82500
H149        H  0.38581124  0.44553161  0.10927285     0.13200
C150        C  0.32856777  0.41124087  0.08674534     0.02600
N151        N  0.33721665  0.41487906  0.03530242    -0.81100
H152        H  0.39898587  0.45142987  0.02170199     0.18100
C153        C  0.30410841  0.42021245  0.08160251    -0.25900
C154        C  0.27401773  0.40524792  0.09377649     0.36100
C155        C  0.26877623  0.38144317  0.11185891    -0.19900
C156        C  0.29289516  0.37184076  0.11649532    -0.25200
C157        C  0.32251982  0.38609646  0.10385165     0.27500
H158        H  0.30890190  0.43961725  0.06850881     0.13200
N159        N  0.24964013  0.41547128  0.08874923    -0.82500
H160        H  0.28857169  0.35313523  0.13008716     0.18100
N161        N  0.34667001  0.37542715  0.10843252    -0.81100
H162        H  0.25832278  0.43475969  0.07611545     0.33700
H163        H  0.22963096  0.39556674  0.08082856     0.38200
H164        H  0.33846449  0.35678293  0.12155754     0.33700
H165        H  0.34929311  0.36484104  0.09283488     0.30400
H166        H  0.34416764  0.41886732  0.01740279     0.33700
H167        H  0.32774152  0.38949358  0.03869515     0.30400
H168        H  0.44377730  0.49725827  0.10668329     0.38200
H169        H  0.44819472  0.46269419  0.10773205     0.33700
C170        C  0.11718525  0.22965089  0.10781271    -0.20000
C171        C  0.09244252  0.22415002  0.09085679     0.36200
C172        C  0.07790652  0.19421253  0.07833182    -0.26000
C173        C  0.08797126  0.17014022  0.08237407     0.02600
C174        C  0.11418108  0.17663684  0.09809571     0.27400
C175        C  0.12829648  0.20622589  0.11087786    -0.25100
N176        N  0.08120039  0.24820653  0.08722573    -0.82500
H177        H  0.05769776  0.18894532  0.06621005     0.13200
C178        C  0.06801540  0.13655811  0.07283704     0.02600
N179        N  0.12613431  0.15303499  0.10112900    -0.81100
H180        H  0.14774016  0.21085511  0.12358910     0.18100
C181        C  0.07362456  0.12895353  0.04986958    -0.25900
C182        C  0.05476737  0.09684551  0.04075452     0.36100
C183        C  0.03073368  0.07178419  0.05528857    -0.19900
C184        C  0.02557425  0.07979766  0.07836654    -0.25200
C185        C  0.04336531  0.11197543  0.08704615     0.27500
H186        H  0.09232638  0.14824282  0.03894874     0.13200
N187        N  0.05904119  0.09006683  0.01659388    -0.82500
H188        H  0.50859750  0.05980880  0.09028219     0.18100
N189        N  0.03597330  0.12002523  0.11004901    -0.81100
H190        H  0.07794209  0.11099987  0.00843737     0.33700
H191        H  0.03750609  0.08532205  0.00745804     0.38200
H192        H  0.51816874  0.09762684  0.11910764     0.33700
H193        H  0.05617954  0.12607547  0.12119277     0.30400
H194        H  0.14596797  0.16193488  0.11297969     0.33700
H195        H  0.10761533  0.13153195  0.10895179     0.30400
H196        H  0.07020385  0.24953094  0.10302366     0.38200
H197        H  0.06299558  0.24038838  0.07407198     0.33700
C198        C  0.11063040  0.39087362  0.11765890    -0.20000
C199        C  0.08214735  0.39183987  0.12539815     0.36200
C200        C  0.06976800  0.40959266  0.11182055    -0.26000
C201        C  0.08503575  0.42616289  0.09065788     0.02600
C202        C  0.11320125  0.42508279  0.08277538     0.27400
C203        C  0.12566901  0.40739781  0.09630756    -0.25100
N204        N  0.06550881  0.37431683  0.14668624    -0.82500
H205        H  0.04786534  0.41026363  0.11760015     0.13200
C206        C  0.07039173  0.44359909  0.07664977     0.02600
N207        N  0.12923524  0.44229412  0.06124195    -0.81100
H208        H  0.14752079  0.40685054  0.09027749     0.18100
C209        C  0.08015522  0.47702606  0.08109175    -0.25900
C210        C  0.06364409  0.49297171  0.07033745     0.36100
C211        C  0.03695851  0.47494091  0.05496171    -0.19900
C212        C  0.02852663  0.44209637  0.04954092    -0.25200
C213        C  0.04491672  0.42620286  0.06027607     0.27500
H214        H  0.09980075  0.49022768  0.09370556     0.13200
N215        N  0.07224723  0.02574597  0.07772430    -0.82500
H216        H  0.00794581  0.42832010  0.03774789     0.18100
N217        N  0.03473301  0.39197774  0.05557807    -0.81100
H218        H  0.09131072  0.03503663  0.09022041     0.33700
H219        H  0.08104679  0.04091800  0.06256489     0.38200
H220        H  0.01511355  0.38254177  0.04353398     0.33700
H221        H  0.05417594  0.39081487  0.04722793     0.30400
H222        H  0.14994667  0.43945946  0.05809295     0.33700
H223        H  0.11311341  0.43111431  0.04706525     0.30400
H224        H  0.05636611  0.34901719  0.14370600     0.38200
H225        H  0.04520289  0.37781535  0.14993393     0.33700
C226        C  0.29584659  0.18205749  0.27016521    -0.20000
C227        C  0.29000629  0.18238641  0.24535534     0.36200
C228        C  0.27212740  0.19768416  0.23659238    -0.26000
C229        C  0.25996945  0.21303160  0.25187764     0.02600
C230        C  0.26375124  0.21088658  0.27672084     0.27400
C231        C  0.28147775  0.19511799  0.28564996    -0.25100
N232        N  0.30156767  0.16718998  0.22856891    -0.82500
H233        H  0.26858186  0.19857694  0.21753002     0.13200
C234        C  0.24565529  0.23322059  0.24120998     0.02600
N235        N  0.25050053  0.22558093  0.29267326    -0.81100
H236        H  0.28545886  0.19444598  0.30466555     0.18100
C237        C  0.21220739  0.22331887  0.24390659    -0.25900
C238        C  0.19776284  0.24075095  0.23231584     0.36100
C239        C  0.21725347  0.26859228  0.21764812    -0.19900
C240        C  0.25099679  0.27911324  0.21582582    -0.25200
C241        C  0.26533707  0.26170653  0.22738061     0.27500
H242        H  0.19725523  0.20157786  0.25471590     0.13200
N243        N  0.16345931  0.23029650  0.23542060    -0.82500
H244        H  0.26613760  0.30048314  0.20475559     0.18100
N245        N  0.29981160  0.27251262  0.22486435    -0.81100
H246        H  0.15267150  0.20936839  0.24657954     0.33700
H247        H  0.16157647  0.24923459  0.24416341     0.38200
H248        H  0.31082749  0.29367080  0.21394763     0.33700
H249        H  0.31060425  0.27939946  0.24169628     0.30400
H250        H  0.25532750  0.22173275  0.31036230     0.33700
H251        H  0.26281564  0.25117576  0.28957886     0.30400
H252        H  0.29409731  0.14276365  0.23401371     0.38200
H253        H  0.32709035  0.18005598  0.22796878     0.33700
C254        C  0.21685012  0.43083976  0.22308427    -0.20000
C255        C  0.25081605  0.45357761  0.22260097     0.36200
C256        C  0.26349252  0.48097850  0.23775541    -0.26000
C257        C  0.24286960  0.98589324  0.25498170     0.02600
C258        C  0.20938936  0.46386813  0.25395307     0.27400
C259        C  0.19656837  0.43643283  0.23876429    -0.25100
N260        N  0.27227785  0.44936101  0.20637878    -0.82500
H261        H  0.28966466  0.99611925  0.24076867     0.13200
C262        C  0.25727975  0.01730177  0.26847286     0.02600
N263        N  0.18827833  0.46876117  0.27007243    -0.81100
H264        H  0.17057653  0.41912075  0.23937481     0.18100
C265        C  0.24712382  0.04102216  0.26307065    -0.25900
C266        C  0.26410360  0.07330786  0.27206000     0.36100
C267        C  0.29219303  0.08212046  0.28641599    -0.19900
C268        C  0.30078080  0.05762322  0.29324738    -0.25200
C269        C  0.28347506  0.02524337  0.28455425     0.27500
H270        H  0.22693433  0.03484143  0.25074922     0.13200
N271        N  0.25436021  0.09765466  0.26512679    -0.82500
H272        H  0.32216601  0.06431135  0.30444561     0.18100
N273        N  0.29312681  0.00071113  0.29122454    -0.81100
H274        H  0.23519985  0.08792826  0.25272107     0.33700
H275        H  0.24476823  0.10292583  0.28018132     0.38200
H276        H  0.31302179  0.01059469  0.30301655     0.33700
H277        H  0.27845998  0.48109023  0.29604393     0.30400
H278        H  0.16405996  0.44998766  0.26828733     0.33700
H279        H  0.19569585  0.46671466  0.28739927     0.30400
H280        H  0.26543914  0.45249998  0.18909987     0.38200
H281        H  0.29652647  0.46784350  0.20867472     0.33700
C282        C  0.05801979  0.26556091  0.21614473    -0.20000
C283        C  0.04527357  0.28138138  0.23089849     0.36200
C284        C  0.01514595  0.26236751  0.24237767    -0.26000
C285        C  0.49804909  0.22816124  0.23971921     0.02600
C286        C  0.51068610  0.21223422  0.22521612     0.27400
C287        C  0.04064063  0.23084372  0.21406665    -0.25100
N288        N  0.06292560  0.31657060  0.23440066    -0.82500
H289        H  0.00499542  0.27453137  0.25323850     0.13200
C290        C  0.46604942  0.20949984  0.25190607     0.02600
N291        N  0.49309131  0.17688605  0.22254956    -0.81100
H292        H  0.05018079  0.21839392  0.20293337     0.18100
C293        C  0.43762500  0.19158309  0.23839055    -0.25900
C294        C  0.40660081  0.17673086  0.24904680     0.36100
C295        C  0.40349390  0.18004413  0.27380792    -0.19900
C296        C  0.43250830  0.19634416  0.28744425    -0.25200
C297        C  0.46358193  0.21108510  0.27674135     0.27500
H298        H  0.43941252  0.18999808  0.21928263     0.13200
N299        N  0.37813557  0.15887980  0.23446778    -0.82500
H300        H  0.43176074  0.19811363  0.30645439     0.18100
N301        N  0.49276405  0.22800446  0.29096967    -0.81100
H302        H  0.37805919  0.17493205  0.22103429     0.33700
H303        H  0.38021614  0.13962688  0.22639091     0.38200
H304        H  0.48688204  0.22730052  0.30895469     0.33700
H305        H  0.00640372  0.21652661  0.29021725     0.30400
H306        H  0.50562385  0.16904109  0.21115427     0.33700
H307        H  0.49247277  0.16608695  0.23922634     0.30400
H308        H  0.08451995  0.32170227  0.24362671     0.38200
H309        H  0.04972093  0.32420645  0.24530468     0.33700
C310        C  0.26459517  0.13487042  0.39011279    -0.20000
C311        C  0.23802923  0.11293350  0.37595146     0.36200
C312        C  0.20698539  0.09374672  0.38654651    -0.26000
C313        C  0.20212596  0.09637651  0.41093283     0.02600
C314        C  0.22895089  0.11804343  0.42504101     0.27400
C315        C  0.25978879  0.13671384  0.41454339    -0.25100
N316        N  0.24243445  0.11084144  0.35087751    -0.82500
H317        H  0.18643239  0.07699243  0.37574869     0.13200
C318        C  0.16899094  0.07718382  0.42180279     0.02600
N319        N  0.22461611  0.12151265  0.44995583    -0.81100
H320        H  0.28027219  0.15321149  0.42551627     0.18100
C321        C  0.16526021  0.05685409  0.44175904    -0.25900
C322        C  0.13632043  0.04290134  0.45527587     0.36100
C323        C  0.10992009  0.04853843  0.44823000    -0.19900
C324        C  0.11273764  0.06672486  0.42716514    -0.25200
C325        C  0.14215783  0.08152209  0.41406321     0.27500
H326        H  0.18566726  0.05301260  0.44739841     0.13200
N327        N  0.13366678  0.02274915  0.47592039    -0.82500
H328        H  0.09243446  0.07072269  0.42152089     0.18100
N329        N  0.14523521  0.10184407  0.39345369    -0.81100
H330        H  0.15104787  0.51761098  0.47495777     0.33700
H331        H  0.13288119  0.53551202  0.48977647     0.38200
H332        H  0.12323436  0.10234048  0.39006391     0.33700
H333        H  0.16275580  0.12611642  0.39734789     0.30400
H334        H  0.24681788  0.13819020  0.45783368     0.33700
H335        H  0.20886348  0.13181330  0.45132897     0.30400
H336        H  0.22050572  0.09355474  0.34301738     0.38200
H337        H  0.24822470  0.13385899  0.34311567     0.33700
C338        C  0.36837989  0.24595401  0.38311358    -0.20000
C339        C  0.35337137  0.26650641  0.38513352     0.36200
C340        C  0.37117746  0.29812090  0.39521496    -0.26000
C341        C  0.40409517  0.31033210  0.40195277     0.02600
C342        C  0.42039777  0.29216024  0.39649495     0.27400
C343        C  0.40260908  0.26056158  0.38673898    -0.25100
N344        N  0.32031390  0.25540964  0.37699909    -0.82500
H345        H  0.35912098  0.31292016  0.39843652     0.13200
C346        C  0.42074717  0.34086839  0.41622447     0.02600
N347        N  0.45488308  0.30568206  0.40139963    -0.81100
H348        H  0.41572812  0.24721231  0.38236743     0.18100
C349        C  0.43102865  0.33831484  0.43937251    -0.25900
C350        C  0.44670501  0.36616768  0.45389888     0.36100
C351        C  0.45154141  0.39736382  0.44527369    -0.19900
C352        C  0.44180317  0.39996040  0.42181601    -0.25200
C353        C  0.42655868  0.37200765  0.40717708     0.27500
H354        H  0.42680183  0.31432153  0.44611775     0.13200
N355        N  0.45806554  0.36283985  0.47722696    -0.82500
H356        H  0.44572920  0.42378665  0.41495441     0.18100
N357        N  0.41708457  0.37508013  0.38318597    -0.81100
H358        H  0.45214476  0.33820216  0.48088812     0.33700
H359        H  0.48367599  0.37635836  0.47715540     0.38200
H360        H  0.42309456  0.39966937  0.37923749     0.33700
H361        H  0.43096322  0.36895264  0.37176112     0.30400
H362        H  0.46322482  0.28908693  0.39657003     0.33700
H363        H  0.46725430  0.32680082  0.39060950     0.30400
H364        H  0.31999405  0.25231149  0.35858851     0.38200
H365        H  0.31312802  0.27349686  0.37979134     0.33700
C366        C  0.36183658  0.13290444  0.38811248    -0.20000
C367        C  0.34242024  0.10346453  0.40111180     0.36200
C368        C  0.35740971  0.08602868  0.41193018    -0.26000
C369        C  0.39139324  0.09770894  0.41018114     0.02600
C370        C  0.41048770  0.12639702  0.39636524     0.27400
C371        C  0.39546087  0.14343835  0.38531305    -0.25100
N372        N  0.30800435  0.09225023  0.40426154    -0.82500
H373        H  0.34278030  0.06385911  0.42243482     0.13200
C374        C  0.40724062  0.08093500  0.42380332     0.02600
N375        N  0.44530090  0.13881666  0.39435404    -0.81100
H376        H  0.41034986  0.16597877  0.37523576     0.18100
C377        C  0.42473798  0.06807184  0.41155791    -0.25900
C378        C  0.44268327  0.05482583  0.42378306     0.36100
C379        C  0.44252519  0.05362633  0.44907692    -0.19900
C380        C  0.42427673  0.06600690  0.46121594    -0.25200
C381        C  0.40699068  0.07989531  0.44889876     0.27500
H382        H  0.42498519  0.06911196  0.39226484     0.13200
N383        N  0.46117733  0.04296309  0.41044432    -0.82500
H384        H  0.42380907  0.06535716  0.48049762     0.18100
N385        N  0.38972917  0.09358274  0.46179334    -0.81100
H386        H  0.45711310  0.04397764  0.39216784     0.33700
H387        H  0.48603244  0.05931727  0.41327608     0.38200
H388        H  0.39179991  0.09076209  0.48015082     0.33700
H389        H  0.40120998  0.11906606  0.45820659     0.30400
H390        H  0.45574672  0.16005809  0.38348477     0.33700
H391        H  0.45555098  0.14605983  0.41130604     0.30400
H392        H  0.30575785  0.10968385  0.41468811     0.38200
H393        H  0.29718661  0.06992802  0.41392350     0.33700
C394        C  0.40386859  0.44968168  0.55860828    -0.20000
C395        C  0.39793438  0.42203910  0.57334865     0.36200
C396        C  0.36899233  0.40659940  0.58680709    -0.26000
C397        C  0.34565913  0.41785062  0.58570810     0.02600
C398        C  0.35253826  0.44669764  0.57218991     0.27400
C399        C  0.38176626  0.46252507  0.55904664    -0.25100
N400        N  0.42106024  0.40948007  0.57442990    -0.82500
H401        H  0.36409175  0.38501951  0.59772090     0.13200
C402        C  0.31312462  0.39768863  0.59713639     0.02600
N403        N  0.32924017  0.45903004  0.57103869    -0.81100
H404        H  0.38639928  0.48396551  0.54806510     0.18100
C405        C  0.30084825  0.41254539  0.61273590    -0.25900
C406        C  0.26875662  0.39515622  0.62152696     0.36100
C407        C  0.24836999  0.36155447  0.61540753    -0.19900
C408        C  0.26168077  0.34631691  0.60077441    -0.25200
C409        C  0.29343275  0.36409528  0.59130490     0.27500
H410        H  0.31590056  0.43824686  0.61750053     0.13200
N411        N  0.25653166  0.41222585  0.63601418    -0.82500
H412        H  0.24724704  0.32107056  0.59532582     0.18100
N413        N  0.30524674  0.34846423  0.57493228    -0.81100
H414        H  0.25816587  0.43260387  0.62628100     0.33700
H415        H  0.27172148  0.42105997  0.65097339     0.38200
H416        H  0.28796349  0.32363973  0.57255660     0.33700
H417        H  0.30814260  0.36028191  0.55835639     0.30400
H418        H  0.33815690  0.48056432  0.56049686     0.33700
H419        H  0.30816224  0.44125078  0.56254809     0.30400
H420        H  0.44271785  0.42779686  0.58194885     0.38200
H421        H  0.41272113  0.38878409  0.58580287     0.33700
C422        C  0.05614451  0.10912517  0.55260029    -0.20000
C423        C  0.09032050  0.13086371  0.55310640     0.36200
C424        C  0.10280882  0.15872043  0.56775602    -0.26000
C425        C  0.08213200  0.16566193  0.58190175     0.02600
C426        C  0.04800199  0.14443545  0.58114062     0.27400
C427        C  0.03536375  0.11649375  0.56643687    -0.25100
N428        N  0.11225931  0.12503763  0.53846930    -0.82500
H429        H  0.12894328  0.17557578  0.56784157     0.13200
C430        C  0.09705790  0.19620419  0.59642345     0.02600
N431        N  0.02639107  0.15111999  0.59546895    -0.81100
H432        H  0.00915974  0.10002799  0.56616125     0.18100
C433        C  0.08738782  0.22065175  0.59260408    -0.25900
C434        C  0.10553295  0.25247250  0.60222594     0.36100
C435        C  0.13395442  0.25987514  0.61584668    -0.19900
C436        C  0.14184210  0.23451725  0.62133047    -0.25200
C437        C  0.12355643  0.20271432  0.61192526     0.27500
H438        H  0.06695330  0.21562389  0.58078064     0.13200
N439        N  0.09632156  0.27768617  0.59692957    -0.82500
H440        H  0.16317816  0.23996514  0.63228513     0.18100
N441        N  0.13243236  0.17725565  0.61735040    -0.81100
H442        H  0.07435306  0.26790303  0.58727652     0.33700
H443        H  0.11427594  0.29515451  0.58575299     0.38200
H444        H  0.15267310  0.18611438  0.62882751     0.33700
H445        H  0.11284451  0.15827908  0.62656485     0.30400
H446        H  0.00199315  0.13322187  0.59278718     0.33700
H447        H  0.03189668  0.14905753  0.61332521     0.30400
H448        H  0.10680046  0.12769805  0.52070029     0.38200
H449        H  0.13658444  0.14302535  0.54130153     0.33700
C450        C  0.14136169  0.36270318  0.60532528    -0.20000
C451        C  0.14379207  0.37214020  0.58096200     0.36200
C452        C  0.12611265  0.38786366  0.57232662    -0.26000
C453        C  0.10563670  0.39381235  0.58727455     0.02600
C454        C  0.10208561  0.38335770  0.61130302     0.27400
C455        C  0.11995735  0.36774619  0.62012002    -0.25100
N456        N  0.16409797  0.36569226  0.56502139    -0.82500
H457        H  0.12822714  0.39554170  0.55377541     0.13200
C458        C  0.08811718  0.41098420  0.57709434     0.02600
N459        N  0.08063880  0.38893555  0.62661888    -0.81100
H460        H  0.11799866  0.36050304  0.63875176     0.18100
C461        C  0.05594374  0.39219224  0.56893948    -0.25900
C462        C  0.03986109  0.40706019  0.55626907     0.36100
C463        C  0.05623774  0.44193308  0.55219591    -0.19900
C464        C  0.08833545  0.46066055  0.56112874    -0.25200
C465        C  0.10446504  0.44549979  0.57334042     0.27500
H466        H  0.04382468  0.36555776  0.57165025     0.13200
N467        N  0.00736643  0.38657690  0.54712944    -0.82500
H468        H  0.10124594  0.48723725  0.55823423     0.18100
N469        N  0.13770109  0.46485041  0.58146152    -0.81100
H470        H  0.49446480  0.37456600  0.57346428     0.33700
H471        H  0.49814031  0.38723877  0.54510938     0.38200
H472        H  0.14646883  0.48987698  0.57705583     0.33700
H473        H  0.13757367  0.46317136  0.60005272     0.30400
H474        H  0.08062511  0.37957894  0.64374332     0.33700
H475        H  0.09018338  0.41454211  0.62820271     0.30400
H476        H  0.15441203  0.34004028  0.56386744     0.38200
H477        H  0.16328227  0.37442002  0.54782982     0.33700
C478        C  0.39735972  0.27855950  0.88010543    -0.20000
C479        C  0.41811807  0.30903582  0.86835308     0.36200
C480        C  0.43545838  0.33779884  0.88179990    -0.26000
C481        C  0.43247718  0.33718501  0.90660677     0.02600
C482        C  0.41171851  0.30714822  0.91838652     0.27400
C483        C  0.39443364  0.27821632  0.90506026    -0.25100
N484        N  0.42191543  0.31091777  0.84290236    -0.82500
H485        H  0.45105909  0.36111300  0.87281773     0.13200
C486        C  0.45049975  0.36859971  0.91977048     0.02600
N487        N  0.40848447  0.30612855  0.94385649    -0.81100
H488        H  0.37861873  0.25524182  0.91431942     0.18100
C489        C  0.43285449  0.38016099  0.93312235    -0.25900
C490        C  0.44863237  0.41103896  0.94409663     0.36100
C491        C  0.48296862  0.43152890  0.94148939    -0.19900
C492        C  0.50074488  0.41894100  0.92896431    -0.25200
C493        C  0.48485370  0.38775473  0.91814736     0.27500
H494        H  0.40643634  0.36550555  0.93451028     0.13200
N495        N  0.42942146  0.42195426  0.95739972    -0.82500
H496        H  0.02687253  0.43274674  0.92789365     0.18100
N497        N  0.50342281  0.37548470  0.90532144    -0.81100
H498        H  0.41756912  0.40465740  0.97105925     0.33700
H499        H  0.41149637  0.42229827  0.94608215     0.38200
H500        H  0.02863500  0.39168346  0.90725525     0.33700
H501        H  0.50083113  0.35419342  0.91427656     0.30400
H502        H  0.39214938  0.28218474  0.94979399     0.33700
H503        H  0.43136136  0.31191500  0.95125936     0.30400
H504        H  0.39997523  0.30809186  0.83542927     0.38200
H505        H  0.44003146  0.33443421  0.83751018     0.33700
C506        C  0.07996165  0.04604586  0.94994426    -0.20000
C507        C  0.10719322  0.04799707  0.96269889     0.36200
C508        C  0.13887882  0.06617165  0.95292599    -0.26000
C509        C  0.14350865  0.08215151  0.93062986     0.02600
C510        C  0.11642951  0.08200607  0.91876665     0.27400
C511        C  0.08490075  0.06355094  0.92838553    -0.25100
N512        N  0.10222664  0.02975152  0.98469441    -0.82500
H513        H  0.15967634  0.06619661  0.96196880     0.13200
C514        C  0.17540980  0.09471058  0.91810277     0.02600
N515        N  0.12096968  0.09928152  0.89635540    -0.81100
H516        H  0.06385718  0.06085618  0.91816864     0.18100
C517        C  0.17609073  0.07920201  0.89702358    -0.25900
C518        C  0.20484375  0.09068467  0.88355579     0.36100
C519        C  0.23378979  0.11869624  0.89119130    -0.19900
C520        C  0.23351988  0.13334650  0.91292508    -0.25200
C521        C  0.20449364  0.12169612  0.92641548     0.27500
H522        H  0.15384339  0.05800011  0.89098111     0.13200
N523        N  0.20470787  0.07388142  0.86215720    -0.82500
H524        H  0.25564251  0.15468628  0.91893363     0.18100
N525        N  0.20421955  0.13759368  0.94813932    -0.81100
H526        H  0.18142450  0.05403477  0.85894357     0.33700
H527        H  0.22046358  0.06371670  0.86493231     0.38200
H528        H  0.22756965  0.15705950  0.95177907     0.33700
H529        H  0.18878908  0.14817037  0.94552141     0.30400
H530        H  0.09858009  0.09645970  0.88980283     0.33700
H531        H  0.13567046  0.12453745  0.89951519     0.30400
H532        H  0.09253744  0.03964739  0.99692088     0.38200
H533        H  0.12465916  0.03330937  0.99169965     0.33700
C534        C  0.47500380  0.03582576  0.94390184    -0.20000
C535        C  0.49195162  0.06855743  0.93501180     0.36200
C536        C  0.47423689  0.08412559  0.92589986    -0.26000
C537        C  0.43980401  0.06743969  0.92553865     0.02600
C538        C  0.42280960  0.03548981  0.93581323     0.27400
C539        C  0.44056186  0.02001083  0.94486997    -0.25100
N540        N  0.02738958  0.08610814  0.93432777    -0.82500
H541        H  0.48739784  0.10874889  0.91807365     0.13200
C542        C  0.42180067  0.08229888  0.91250500     0.02600
N543        N  0.38756789  0.01865822  0.93646510    -0.81100
H544        H  0.42743432  0.99505790  0.95216455     0.18100
C545        C  0.40461456  0.06706197  0.89172678    -0.25900
C546        C  0.38789690  0.08051595  0.87827352     0.36100
C547        C  0.38850454  0.11012248  0.88572619    -0.19900
C548        C  0.40515831  0.12490204  0.90690457    -0.25200
C549        C  0.42191993  0.11133208  0.92031013     0.27500
H550        H  0.40449550  0.04462347  0.88589408     0.13200
N551        N  0.37020056  0.06406539  0.85717140    -0.82500
H552        H  0.40571233  0.14752243  0.91275405     0.18100
N553        N  0.43918120  0.12693299  0.94173355    -0.81100
H554        H  0.37265848  0.04296221  0.85403824     0.33700
H555        H  0.34529744  0.05581639  0.86029719     0.38200
H556        H  0.43704569  0.14818505  0.94498777     0.33700
H557        H  0.42771044  0.11047426  0.95591349     0.30400
H558        H  0.37880726  0.99523323  0.94446332     0.33700
H559        H  0.38034889  0.03225020  0.94736008     0.30400
H560        H  0.03578591  0.10779627  0.94413022     0.38200
H561        H  0.03435993  0.09293776  0.91660038     0.33700
C562        C  0.27584429  0.22260066  0.78393277    -0.20000
C563        C  0.24666758  0.22083941  0.79280196     0.36200
C564        C  0.23044204  0.23496229  0.77946683    -0.26000
C565        C  0.24253489  0.25052517  0.75733272     0.02600
C566        C  0.27142017  0.25169401  0.74828839     0.27400
C567        C  0.28803904  0.23820654  0.76187212    -0.25100
N568        N  0.23411595  0.20551537  0.81560368    -0.82500
H569        H  0.20872138  0.23463933  0.78669165     0.13200
C570        C  0.22618622  0.26773552  0.74483403     0.02600
N571        N  0.28362516  0.26638551  0.72527681    -0.81100
H572        H  0.31024226  0.23921722  0.75498193     0.18100
C573        C  0.24510832  0.30119002  0.73834929    -0.25900
C574        C  0.23076718  0.31923997  0.72791832     0.36100
C575        C  0.19630488  0.30401701  0.72494192    -0.19900
C576        C  0.17742851  0.27021673  0.73058549    -0.25200
C577        C  0.19203966  0.25182793  0.74034248     0.27500
H578        H  0.27127799  0.31350563  0.74175535     0.13200
N579        N  0.25118000  0.35295473  0.72022301    -0.82500
H580        H  0.15113496  0.25827527  0.72790601     0.18100
N581        N  0.17235371  0.21717423  0.74585052    -0.81100
H582        H  0.27589423  0.36038525  0.72374651     0.33700
H583        H  0.24884677  0.35387882  0.70172878     0.38200
H584        H  0.14774312  0.20931031  0.74159580     0.33700
H585        H  0.18017441  0.20412626  0.73491390     0.30400
H586        H  0.30508780  0.26534578  0.72127057     0.33700
H587        H  0.26610716  0.25208184  0.71261025     0.30400
H588        H  0.21240396  0.20613383  0.81947581     0.38200
H589        H  0.25124865  0.21968223  0.82853219     0.33700
C590        C  0.09087846  0.29086416  0.71616226    -0.20000
C591        C  0.06392174  0.29269291  0.70585818     0.36200
C592        C  0.03253967  0.27372981  0.71570013    -0.26000
C593        C  0.02776645  0.25344066  0.73590301     0.02600
C594        C  0.05445868  0.24991299  0.74517526     0.27400
C595        C  0.08578793  0.26855774  0.73504542    -0.25100
N596        N  0.06896159  0.31519339  0.68625091    -0.82500
H597        H  0.01196962  0.27604118  0.70837345     0.13200
C598        C  0.99574556  0.23904763  0.74858937     0.02600
N599        N  0.05005353  0.22891537  0.76563319    -0.81100
H600        H  0.10670960  0.26768195  0.74312386     0.18100
C601        C  0.47746481  0.20468892  0.75248781    -0.25900
C602        C  0.44778867  0.19050304  0.76529082     0.36100
C603        C  0.43609364  0.21128685  0.77493431    -0.19900
C604        C  0.45379087  0.24560060  0.77035760    -0.25200
C605        C  0.48325187  0.25963893  0.75746652     0.27500
H606        H  0.48668604  0.18890950  0.74541252     0.13200
N607        N  0.42963181  0.15514119  0.76841326    -0.82500
H608        H  0.44516450  0.26184509  0.77745818     0.18100
N609        N  0.00255153  0.29516930  0.75450207    -0.81100
H610        H  0.44198075  0.14368311  0.76068233     0.33700
H611        H  0.40753141  0.14697029  0.75908184     0.38200
H612        H  0.48893808  0.30658175  0.76117602     0.33700
H613        H  0.02476797  0.30324472  0.76365551     0.30400
H614        H  0.07205992  0.22902713  0.77015709     0.33700
H615        H  0.04392219  0.23899896  0.78002639     0.30400
H616        H  0.07755105  0.30736075  0.67188519     0.38200
H617        H  0.04672673  0.31390928  0.68083971     0.33700
C618        C  0.27282020  0.06321532  0.78076677    -0.20000
C619        C  0.24587357  0.05870953  0.76625318     0.36200
C620        C  0.22937416  0.02963153  0.75294041    -0.26000
C621        C  0.23774571  0.50252287  0.75649272     0.02600
C622        C  0.26590537  0.00944403  0.76848220     0.27400
C623        C  0.28279228  0.03872790  0.78135717    -0.25100
N624        N  0.23549277  0.08366173  0.76490057    -0.82500
H625        H  0.20894207  0.02624582  0.74162303     0.13200
C626        C  0.21908321  0.47123360  0.74328742     0.02600
N627        N  0.27629343  0.48334078  0.77163734    -0.81100
H628        H  0.30327853  0.04194046  0.79255169     0.18100
C629        C  0.23579931  0.46141417  0.72746951    -0.25900
C630        C  0.22029676  0.43017790  0.71706317     0.36100
C631        C  0.18675840  0.40818101  0.72177793    -0.19900
C632        C  0.16945182  0.41935159  0.73626058    -0.25200
C633        C  0.18537388  0.45033612  0.74733872     0.27500
H634        H  0.26155481  0.47765168  0.72388144     0.13200
N635        N  0.23920629  0.42037881  0.70239651    -0.82500
H636        H  0.14392993  0.40375568  0.74022827     0.18100
N637        N  0.16770611  0.46006276  0.76344537    -0.81100
H638        H  0.24876624  0.43741075  0.68826295     0.33700
H639        H  0.25885682  0.42166699  0.71251534     0.38200
H640        H  0.14305770  0.44205615  0.76440037     0.33700
H641        H  0.17762221  0.46140425  0.78046431     0.30400
H642        H  0.29736744  0.49142470  0.78220281     0.33700
H643        H  0.25784999  0.46259750  0.78031378     0.30400
H644        H  0.25441547  0.10479700  0.75696022     0.38200
H645        H  0.21502528  0.07619837  0.75375794     0.33700
O646        O  0.27552400  0.67784819  0.80652317    -0.78600
C647        C  0.29032966  0.59202379  0.79638275     0.82400
O648        O  0.29236447  0.64867597  0.88514798    -0.79800
O649        O  0.37188210  0.62374380  0.84769644    -0.81200
O650        O  0.39367205  0.71876182  0.79529968    -0.81000
O651        O  0.32267003  0.72310250  0.79890201    -0.79700
Zn652      Zn  0.28747173  0.64668240  0.82448516     1.55700
O653        O  0.39375063  0.67041585  0.79783763    -0.81100
Cd654      Cd  0.35586136  0.71286980  0.81783949     1.59700
Cd655      Cd  0.33826934  0.66987514  0.86856463     1.59600
O656        O  0.37636886  0.74746249  0.84437065    -0.81000
O657        O  0.33362193  0.66763368  0.83283709    -1.91600
Cd658      Cd  0.35451213  0.64177512  0.82015625     1.59900
O659        O  0.36473257  0.71903971  0.87864297    -0.81000
O660        O  0.32053372  0.60195114  0.80107870    -0.79700
C661        C  0.26364737  0.63369948  0.87608416     0.82900
C662        C  0.29150682  0.70661439  0.79720207     0.82500
O663        O  0.27532687  0.60702781  0.80411896    -0.78600
C664        C  0.40577162  0.69998956  0.78966507     0.83300
O665        O  0.25935176  0.63128362  0.85363639    -0.78700
C666        C  0.37799618  0.74648595  0.86702235     0.83500
C667        C  0.37375818  0.62702181  0.87024310     0.83800
O668        O  0.36286713  0.64426461  0.88074121    -0.78700
C669        C  0.17187977  0.87364922  0.71239890     0.86300
C670        C  0.18898199  0.85580613  0.72470251    -0.53900
C671        C  0.17887435  0.82424323  0.71731263     0.09300
C672        C  0.15084229  0.81243042  0.69883118     0.20200
C673        C  0.17542468  0.87016591  0.68564445    -0.54600
C674        C  0.16484529  0.83840526  0.67857889     0.09400
C675        C  0.13519722  0.85066127  0.71723125    -0.54200
C676        C  0.12427883  0.81874799  0.71028572     0.09900
H677        H  0.20792522  0.86758424  0.73813004     0.14500
H678        H  0.14202185  0.78661553  0.69288492     0.00200
H679        H  0.18708348  0.89122441  0.67346632     0.14800
H680        H  0.11872431  0.85780593  0.72570181     0.14500
C681        C  0.49797126  0.96597434  0.95145582     0.86300
C682        C  0.03463348  0.98907642  0.94686355    -0.53900
C683        C  0.04702645  0.52113679  0.95518760     0.09300
C684        C  0.02065151  0.52700947  0.96750242     0.20200
C685        C  0.49491162  0.96700758  0.97849036    -0.54600
C686        C  0.00567637  0.49910985  0.98646585     0.09400
C687        C  0.48105365  0.98519832  0.94114328    -0.54200
C688        C  0.49345038  0.51722835  0.94922474     0.09900
H689        H  0.05055146  0.98265871  0.93686115     0.14500
H690        H  0.02974340  0.55221375  0.97463545     0.00200
H691        H  0.48307783  0.94479889  0.98959895     0.14800
H692        H  0.46122100  0.97471704  0.92819932     0.14500
O693        O  0.44293598  0.99426600  0.53559462    -0.78600
C694        C  0.03967876  0.57766393  0.53784331     0.82400
O695        O  0.47725453  0.52731355  0.45162371    -0.79800
O696        O  0.08047509  0.53699405  0.48490368    -0.81200
O697        O  0.01259395  0.94352505  0.53222911    -0.81000
O698        O  0.44317118  0.94597533  0.53446291    -0.79700
Zn699      Zn  0.47938776  0.52462360  0.51219680     1.55700
O700        O  0.05832284  0.99139961  0.53517549    -0.81100
Cd701      Cd  0.48139045  0.95544955  0.51199615     1.59700
Cd702      Cd  0.50294350  0.00387130  0.46495944     1.59600
O703        O  0.46424164  0.92354459  0.48369147    -0.81000
O704        O  0.50280310  0.00251091  0.50073881    -1.91600
Cd705      Cd  0.04808481  0.52281150  0.51308478     1.59900
O706        O  0.47958068  0.95613942  0.45134791    -0.81000
O707        O  0.05753870  0.56450386  0.53246193    -0.79700
C708        C  0.46070474  0.53889222  0.46212282     0.82900
C709        C  0.43155735  0.96408600  0.54230429     0.82500
O710        O  0.00963431  0.56473094  0.53151954    -0.78600
C711        C  0.04167336  0.96054993  0.54007196     0.83300
O712        O  0.45932805  0.53870589  0.48483614    -0.78700
C713        C  0.46585606  0.92739617  0.46112699     0.83500
C714        C  0.07791585  0.53732417  0.46228992     0.83800
O715        O  0.05015902  0.52694276  0.45190584    -0.81100
C716        C  0.34888752  0.70860999  0.37775096     0.86300
C717        C  0.36422724  0.68718367  0.38704891    -0.53900
C718        C  0.34799279  0.65479846  0.38058133     0.09300
C719        C  0.31690398  0.64608586  0.36563142     0.20200
C720        C  0.34552536  0.70317652  0.35088114    -0.54600
C721        C  0.32937794  0.67063273  0.34435142     0.09400
C722        C  0.31379824  0.69007877  0.38737238    -0.54200
C723        C  0.29679760  0.65757929  0.38096922     0.09900
H724        H  0.38556472  0.69618974  0.39861650     0.14500
H725        H  0.30358074  0.61967152  0.36043838     0.00200
H726        H  0.35793607  0.72331851  0.33808461     0.14800
H727        H  0.30350934  0.70116893  0.39917565     0.14500
C728        C  0.21108621  0.84305386  0.62193039     0.86300
C729        C  0.19378878  0.86096372  0.61015702    -0.53900
C730        C  0.16158749  0.84854360  0.61601883     0.09300
C731        C  0.14926677  0.81908571  0.63373400     0.20200
C732        C  0.20544687  0.84377183  0.64866998    -0.54600
C733        C  0.17338975  0.83186242  0.65483199     0.09400
C734        C  0.18932515  0.80635738  0.61544314    -0.54200
C735        C  0.15699523  0.79381562  0.62152271     0.09900
H736        H  0.20643503  0.88233335  0.59839653     0.14500
H737        H  0.12319549  0.80910363  0.63894979     0.00200
H738        H  0.22530225  0.85479625  0.66152780     0.14800
H739        H  0.19774282  0.79107058  0.60661198     0.14500
O740        O  0.17339869  0.76918768  0.19642020    -0.78600
C741        C  0.08949242  0.78448449  0.20332207     0.82400
O742        O  0.14212532  0.78836311  0.11540475    -0.79800
O743        O  0.12389581  0.87084048  0.15462277    -0.81200
O744        O  0.21981835  0.88862600  0.20156131    -0.81000
O745        O  0.22045053  0.81565888  0.19984958    -0.79700
Zn746      Zn  0.14453920  0.78157455  0.17590216     1.55700
O747        O  0.17170418  0.88838226  0.20355840    -0.81100
Cd748      Cd  0.21123893  0.84910497  0.18002806     1.59700
Cd749      Cd  0.16582527  0.83411099  0.13179818     1.59600
O750        O  0.24425355  0.86585860  0.15215340    -0.81000
O751        O  0.16538546  0.82834665  0.16733071    -1.91600
Cd752      Cd  0.14107606  0.85030266  0.18117717     1.59900
O753        O  0.21355854  0.85773310  0.11949589    -0.81000
O754        O  0.10105882  0.81567701  0.20031912    -0.79700
C755        C  0.13193683  0.75926847  0.12409504     0.82900
C756        C  0.20259549  0.78487377  0.20439855     0.82500
O757        O  0.10347684  0.76907180  0.19448694    -0.78600
C758        C  0.20198077  0.90068815  0.20923418     0.83300
O759        O  0.13265562  0.75393573  0.14638763    -0.78700
C760        C  0.24135729  0.86792600  0.12965897     0.83500
C761        C  0.12752126  0.87389803  0.13204642     0.83800
O762        O  0.14338672  0.86202551  0.12101249    -0.81100
C763        C  0.46075104  0.98369485  0.04634946     0.86300
C764        C  0.47814445  0.52122061  0.05289707    -0.53900
C765        C  0.01010912  0.53878622  0.04592214     0.09300
C766        C  0.02166591  0.51763334  0.03165596     0.20200
C767        C  0.46513009  0.98506798  0.01916234    -0.54600
C768        C  0.99689899  0.50318999  0.01094668     0.09400
C769        C  0.48266711  0.96928893  0.05563186    -0.54200
C770        C  0.01452215  0.98639854  0.04875437     0.09900
H771        H  0.46627633  0.53270390  0.06273396     0.14500
H772        H  0.04762674  0.53060113  0.02588164     0.00200
H773        H  0.44559844  0.97223007  0.00643225     0.14800
H774        H  0.47358189  0.94714173  0.06683582     0.14500
C775        C  0.36924742  0.66668265  0.28612955     0.86300
C776        C  0.34931346  0.68114313  0.27331360    -0.53900
C777        C  0.31763032  0.66838175  0.28077492     0.09300
C778        C  0.30883853  0.64294992  0.30140739     0.20200
C779        C  0.36661262  0.67333762  0.31251297    -0.54600
C780        C  0.33527314  0.66136989  0.32047919     0.09400
C781        C  0.34862926  0.62908740  0.28400717    -0.54200
C782        C  0.31695968  0.61638049  0.29166003     0.09900
H783        H  0.35996322  0.70081487  0.25999163     0.14500
H784        H  0.28337691  0.63314990  0.30799566     0.00200
H785        H  0.38706450  0.68773072  0.32415540     0.14800
H786        H  0.35799622  0.61395353  0.27592023     0.14500
C787        C  0.42620944  0.96472935  0.05692207    -0.20000
C788        C  0.42232838  0.96342602  0.08200322     0.36200
C789        C  0.39120998  0.94563798  0.09213083    -0.26000
C790        C  0.36334633  0.92850857  0.07795133     0.02600
C791        C  0.36662787  0.92935999  0.05300843     0.27400
C792        C  0.39790232  0.94760149  0.04271215    -0.25100
N793        N  0.45014325  0.98016876  0.09739733    -0.82500
H794        H  0.38878619  0.94535857  0.11131920     0.13200
C795        C  0.33092935  0.91065257  0.08971570     0.02600
N796        N  0.33819842  0.91140108  0.03826693    -0.81100
H797        H  0.39954758  0.94776385  0.02361068     0.18100
C798        C  0.30670924  0.91986631  0.08434412    -0.25900
C799        C  0.27674690  0.90558644  0.09664401     0.36100
C800        C  0.27132091  0.88209821  0.11500615    -0.19900
C801        C  0.29537822  0.87255671  0.12011030    -0.25200
C802        C  0.32495146  0.88624779  0.10742501     0.27500
H803        H  0.31156533  0.93887159  0.07089600     0.13200
N804        N  0.25267582  0.91616230  0.09141132    -0.82500
H805        H  0.29097507  0.85421407  0.13400790     0.18100
N806        N  0.34906611  0.87568349  0.11251744    -0.81100
H807        H  0.26159487  0.93533499  0.07868517     0.33700
H808        H  0.23255102  0.89634086  0.08352835     0.38200
H809        H  0.34093401  0.85765256  0.12608085     0.33700
H810        H  0.35152818  0.86435769  0.09726149     0.30400
H811        H  0.34465234  0.91456743  0.02026794     0.33700
H812        H  0.32893386  0.88619246  0.04226866     0.30400
H813        H  0.44648993  0.99700001  0.10753687     0.38200
H814        H  0.45120798  0.96261825  0.10901209     0.33700
C815        C  0.11883707  0.73055263  0.10817173    -0.20000
C816        C  0.09373621  0.72483663  0.09150265     0.36200
C817        C  0.07916760  0.69488447  0.07897848    -0.26000
C818        C  0.08952783  0.67097195  0.08273104     0.02600
C819        C  0.11598268  0.67763385  0.09824810     0.27400
C820        C  0.13020083  0.70728766  0.11098809    -0.25100
N821        N  0.08218979  0.74869707  0.08816188    -0.82500
H822        H  0.05873652  0.68949078  0.06705277     0.13200
C823        C  0.06968293  0.63741943  0.07301268     0.02600
N824        N  0.12796669  0.65405877  0.10121483    -0.81100
H825        H  0.14984218  0.71203678  0.12354386     0.18100
C826        C  0.07612332  0.62975831  0.05030439    -0.25900
C827        C  0.05701215  0.59789256  0.04082168     0.36100
C828        C  0.03166663  0.57307867  0.05470406    -0.19900
C829        C  0.02589455  0.58107311  0.07763482    -0.25200
C830        C  0.04414627  0.61299702  0.08670521     0.27500
H831        H  0.09566574  0.64886821  0.03982748     0.13200
N832        N  0.06249274  0.59115845  0.01692991    -0.82500
H833        H  0.50825097  0.56184712  0.08930446     0.18100
N834        N  0.03644530  0.62095027  0.10962964    -0.81100
H835        H  0.08227151  0.61186139  0.00929140     0.33700
H836        H  0.04174411  0.58712268  0.00699822     0.38200
H837        H  0.51774859  0.60072458  0.11724119     0.33700
H838        H  0.05626972  0.62626393  0.12101885     0.30400
H839        H  0.14796796  0.66305428  0.11291928     0.33700
H840        H  0.10950778  0.63266036  0.10920381     0.30400
H841        H  0.07147410  0.74995568  0.10411767     0.38200
H842        H  0.06370228  0.74072516  0.07521642     0.33700
C843        C  0.11327162  0.89195253  0.11809006    -0.20000
C844        C  0.08354243  0.89113282  0.12473133     0.36200
C845        C  0.07116346  0.90864715  0.11089076    -0.26000
C846        C  0.08771599  0.92685514  0.09056240     0.02600
C847        C  0.11724288  0.92769824  0.08380685     0.27400
C848        C  0.12967794  0.91015215  0.09758118    -0.25100
N849        N  0.06567410  0.87203802  0.14517423    -0.82500
H850        H  0.04829530  0.90792128  0.11583866     0.13200
C851        C  0.07312653  0.94425719  0.07642223     0.02600
N852        N  0.13458338  0.94660190  0.06315245    -0.81100
H853        H  0.15250287  0.91097069  0.09241267     0.18100
C854        C  0.08184770  0.97726901  0.08151234    -0.25900
C855        C  0.06467859  0.99275953  0.07112206     0.36100
C856        C  0.03837045  0.97469531  0.05547247    -0.19900
C857        C  0.03106522  0.94238999  0.04931687    -0.25200
C858        C  0.04820725  0.92698185  0.05962731     0.27500
H859        H  0.10106519  0.99039458  0.09443944     0.13200
N860        N  0.07232267  0.52647837  0.07627415    -0.82500
H861        H  0.01080323  0.92861029  0.03727414     0.18100
N862        N  0.03938008  0.89332034  0.05404085    -0.81100
H863        H  0.09143307  0.53564873  0.08873536     0.33700
H864        H  0.08148443  0.54104764  0.06088198     0.38200
H865        H  0.02011121  0.88390006  0.04170326     0.33700
H866        H  0.05950021  0.89348343  0.04571258     0.30400
H867        H  0.15614532  0.94503515  0.06077777     0.33700
H868        H  0.11984461  0.93579153  0.04825601     0.30400
H869        H  0.05780452  0.84709586  0.14160414     0.38200
H870        H  0.04451751  0.87431565  0.14768405     0.33700
C871        C  0.29511011  0.68013938  0.27077280    -0.20000
C872        C  0.28916350  0.68020306  0.24596929     0.36200
C873        C  0.27100556  0.69517887  0.23714706    -0.26000
C874        C  0.25892458  0.71066518  0.25237642     0.02600
C875        C  0.26312487  0.70907730  0.27720514     0.27400
C876        C  0.28088833  0.69340991  0.28619767    -0.25100
N877        N  0.30111193  0.66527103  0.22925580    -0.82500
H878        H  0.26734110  0.69588046  0.21808689     0.13200
C879        C  0.24463869  0.73082341  0.24168297     0.02600
N880        N  0.25035048  0.72433850  0.29306179    -0.81100
H881        H  0.28511576  0.69308550  0.30520258     0.18100
C882        C  0.21108209  0.72063583  0.24400076    -0.25900
C883        C  0.19679975  0.73833385  0.23257881     0.36100
C884        C  0.21659754  0.76675453  0.21851258    -0.19900
C885        C  0.25040438  0.77744962  0.21702653    -0.25200
C886        C  0.26456783  0.75976254  0.22838993     0.27500
H887        H  0.19595798  0.69853445  0.25442274     0.13200
N888        N  0.16237430  0.72759048  0.23526904    -0.82500
H889        H  0.26576052  0.79922601  0.20638434     0.18100
N890        N  0.29912651  0.77077111  0.22624181    -0.81100
H891        H  0.15137217  0.70623992  0.24600191     0.33700
H892        H  0.16011420  0.74610743  0.24431270     0.38200
H893        H  0.31033489  0.79227753  0.21568841     0.33700
H894        H  0.30949785  0.77714253  0.24323562     0.30400
H895        H  0.25550819  0.72091669  0.31075955     0.33700
H896        H  0.26275338  0.74985476  0.28962391     0.30400
H897        H  0.29427484  0.64104757  0.23488880     0.38200
H898        H  0.32661623  0.67862466  0.22859560     0.33700
C899        C  0.21675509  0.92991781  0.22512430    -0.20000
C900        C  0.25100181  0.95157089  0.22576159     0.36200
C901        C  0.26357005  0.97909089  0.24078028    -0.26000
C902        C  0.24318970  0.48647221  0.25336402     0.02600
C903        C  0.20883982  0.96425961  0.25462961     0.27400
C904        C  0.19613133  0.93658158  0.23969288    -0.25100
N905        N  0.27289633  0.94628831  0.21067860    -0.82500
H906        H  0.28936497  0.49873054  0.23696845     0.13200
C907        C  0.25784233  0.51702103  0.26793413     0.02600
N908        N  0.18736882  0.97056377  0.26940836    -0.81100
H909        H  0.16993375  0.92008165  0.23949394     0.18100
C910        C  0.24599466  0.53998719  0.26549874    -0.25900
C911        C  0.26320739  0.57177115  0.27524911     0.36100
C912        C  0.29303368  0.58098341  0.28741795    -0.19900
C913        C  0.30303812  0.55685852  0.29183452    -0.25200
C914        C  0.28567235  0.52495329  0.28233910     0.27500
H915        H  0.22439418  0.53400908  0.25472183     0.13200
N916        N  0.25125611  0.59508109  0.27144004    -0.82500
H917        H  0.32547216  0.56351034  0.30174539     0.18100
N918        N  0.29680206  0.50091126  0.28652711    -0.81100
H919        H  0.24834670  0.59727367  0.25312699     0.33700
H920        H  0.22806578  0.58528423  0.27921877     0.38200
H921        H  0.31772762  0.51069204  0.29734559     0.33700
H922        H  0.27357793  0.98178309  0.30050475     0.30400
H923        H  0.16300388  0.95240338  0.26703077     0.33700
H924        H  0.19343557  0.96860751  0.28714394     0.30400
H925        H  0.26758564  0.94988142  0.19305690     0.38200
H926        H  0.29725010  0.96401301  0.21376221     0.33700
C927        C  0.05871807  0.76523570  0.21699470    -0.20000
C928        C  0.04688866  0.78043389  0.23306913     0.36200
C929        C  0.01669237  0.76118762  0.24443878    -0.26000
C930        C  0.49863358  0.72798824  0.24201987     0.02600
C931        C  0.51131756  0.71182757  0.22780205     0.27400
C932        C  0.04056558  0.73082606  0.21357956    -0.25100
N933        N  0.06556977  0.81518120  0.23801259    -0.82500
H934        H  0.00717478  0.77294671  0.25627043     0.13200
C935        C  0.46648481  0.70949935  0.25403043     0.02600
N936        N  0.49393635  0.67639054  0.22567431    -0.81100
H937        H  0.04949422  0.71886892  0.20144859     0.18100
C938        C  0.43827628  0.69135461  0.24034979    -0.25900
C939        C  0.40710237  0.67646261  0.25075653     0.36100
C940        C  0.40361127  0.67998676  0.27542542    -0.19900
C941        C  0.43240740  0.69658132  0.28925083    -0.25200
C942        C  0.46363904  0.71137760  0.27879479     0.27500
H943        H  0.44035653  0.68956530  0.22129481     0.13200
N944        N  0.37887793  0.65830026  0.23602029    -0.82500
H945        H  0.43137050  0.69845843  0.30823020     0.18100
N946        N  0.49258772  0.72859227  0.29320455    -0.81100
H947        H  0.37882899  0.67416569  0.22242843     0.33700
H948        H  0.38124454  0.63906995  0.22817361     0.38200
H949        H  0.48642064  0.72807344  0.31110673     0.33700
H950        H  0.00586392  0.71172398  0.29033647     0.30400
H951        H  0.50648328  0.66835280  0.21445167     0.33700
H952        H  0.49357468  0.66612515  0.24251968     0.30400
H953        H  0.08715834  0.81889603  0.24663190     0.38200
H954        H  0.05308375  0.82241383  0.24992966     0.33700
C955        C  0.26363279  0.63554108  0.39076476    -0.20000
C956        C  0.23694057  0.61464061  0.37626056     0.36200
C957        C  0.20555814  0.59624948  0.38652350    -0.26000
C958        C  0.20053948  0.59871919  0.41089088     0.02600
C959        C  0.22738805  0.61955330  0.42529285     0.27400
C960        C  0.25855811  0.63733510  0.41515189    -0.25100
N961        N  0.24160553  0.61276201  0.35119996    -0.82500
H962        H  0.18492342  0.58015202  0.37551683     0.13200
C963        C  0.16736099  0.57964604  0.42159222     0.02600
N964        N  0.22275263  0.62299139  0.45016029    -0.81100
H965        H  0.27909157  0.65313776  0.42635990     0.18100
C966        C  0.16329085  0.55826005  0.44091976    -0.25900
C967        C  0.13429756  0.54391381  0.45432222     0.36100
C968        C  0.10822467  0.55031435  0.44780527    -0.19900
C969        C  0.11139770  0.56977370  0.42737319    -0.25200
C970        C  0.14090430  0.58492474  0.41437908     0.27500
H971        H  0.18347167  0.55381799  0.44615573     0.13200
N972        N  0.13121271  0.52253338  0.47428834    -0.82500
H973        H  0.09131657  0.57437935  0.42216709     0.18100
N974        N  0.14444744  0.60644437  0.39442568    -0.81100
H975        H  0.15371054  0.01818267  0.47700572     0.33700
H976        H  0.13528565  0.03653682  0.49094580     0.38200
H977        H  0.12268129  0.60755519  0.39138745     0.33700
H978        H  0.16226770  0.63035332  0.39889940     0.30400
H979        H  0.24500329  0.63905085  0.45828210     0.33700
H980        H  0.20763412  0.63404672  0.45136347     0.30400
H981        H  0.21953642  0.59625827  0.34307991     0.38200
H982        H  0.24842216  0.63612039  0.34362805     0.33700
C983        C  0.36843452  0.74540680  0.38432019    -0.20000
C984        C  0.35364190  0.76620134  0.38602104     0.36200
C985        C  0.37145127  0.79780742  0.39609530    -0.26000
C986        C  0.40427707  0.80992855  0.40306210     0.02600
C987        C  0.42042668  0.79145295  0.39798048     0.27400
C988        C  0.40255470  0.75973496  0.38838990    -0.25100
N989        N  0.32071893  0.75529962  0.37763963    -0.82500
H990        H  0.35943882  0.81270096  0.39909911     0.13200
C991        C  0.42094091  0.84073819  0.41712118     0.02600
N992        N  0.45487797  0.80485247  0.40298115    -0.81100
H993        H  0.41560327  0.74622771  0.38430390     0.18100
C994        C  0.43262691  0.83884167  0.43992578    -0.25900
C995        C  0.44807822  0.86685732  0.45431420     0.36100
C996        C  0.45128558  0.89754261  0.44593626    -0.19900
C997        C  0.44006376  0.89954097  0.42286980    -0.25200
C998        C  0.42499076  0.87143659  0.40835268     0.27500
H999        H  0.42959300  0.81521396  0.44655242     0.13200
N1000       N  0.46084509  0.86423366  0.47726556    -0.82500
H1001       H  0.44267845  0.92300028  0.41624762     0.18100
N1002       N  0.41389576  0.87392638  0.38476803    -0.81100
H1003       H  0.45607929  0.83989824  0.48079577     0.33700
H1004       H  0.48635942  0.87865365  0.47662048     0.38200
H1005       H  0.41864361  0.89820553  0.38101905     0.33700
H1006       H  0.42772990  0.86859701  0.37273938     0.30400
H1007       H  0.46309949  0.78806312  0.39842438     0.33700
H1008       H  0.46738830  0.82577604  0.39203364     0.30400
H1009       H  0.32060692  0.75216835  0.35924672     0.38200
H1010       H  0.31363920  0.77349938  0.38027462     0.33700
C1011       C  0.36059076  0.63158819  0.38789612    -0.20000
C1012       C  0.34153847  0.60253650  0.40137489     0.36200
C1013       C  0.35666929  0.58491859  0.41168101    -0.26000
C1014       C  0.39043470  0.59601919  0.40889484     0.02600
C1015       C  0.40903591  0.62414454  0.39443019     0.27400
C1016       C  0.39386192  0.64142496  0.38395304    -0.25100
N1017       N  0.30742211  0.59194331  0.40551638    -0.82500
H1018       H  0.34240988  0.56317162  0.42268241     0.13200
C1019       C  0.40671813  0.57968454  0.42252479     0.02600
N1020       N  0.44356908  0.63584371  0.39124299    -0.81100
H1021       H  0.40842779  0.66366634  0.37348045     0.18100
C1022       C  0.42282339  0.56527333  0.41031104    -0.25900
C1023       C  0.44090917  0.55215625  0.42255234     0.36100
C1024       C  0.44242471  0.55284641  0.44783760    -0.19900
C1025       C  0.42569864  0.56694764  0.45993302    -0.25200
C1026       C  0.40823721  0.58060573  0.44758852     0.27500
H1027       H  0.42178767  0.56488605  0.39102666     0.13200
N1028       N  0.45768785  0.53833652  0.40924062    -0.82500
H1029       H  0.42658785  0.56784682  0.47919499     0.18100
N1030       N  0.39256127  0.59603722  0.46040005    -0.81100
H1031       H  0.45233060  0.53795371  0.39107545     0.33700
H1032       H  0.48284483  0.55433004  0.41093387     0.38200
H1033       H  0.39582711  0.59457226  0.47875336     0.33700
H1034       H  0.40434185  0.62122475  0.45578264     0.30400
H1035       H  0.45364425  0.65673108  0.38001382     0.33700
H1036       H  0.45496381  0.64347467  0.40782515     0.30400
H1037       H  0.30601971  0.60988667  0.41590575     0.38200
H1038       H  0.29686284  0.56992445  0.41554184     0.33700
C1039       C  0.40351433  0.94925470  0.55906291    -0.20000
C1040       C  0.39733991  0.92120509  0.57340971     0.36200
C1041       C  0.36816827  0.90537330  0.58656952    -0.26000
C1042       C  0.34487628  0.91667590  0.58558843     0.02600
C1043       C  0.35203924  0.94597233  0.57254180     0.27400
C1044       C  0.38146616  0.96214202  0.55966875    -0.25100
N1045       N  0.42047837  0.90865685  0.57440649    -0.82500
H1046       H  0.36312242  0.88352880  0.59720850     0.13200
C1047       C  0.31228627  0.89640911  0.59690613     0.02600
N1048       N  0.32886780  0.95847517  0.57160736    -0.81100
H1049       H  0.38630901  0.98391284  0.54901477     0.18100
C1050       C  0.29998969  0.91125400  0.61248201    -0.25900
C1051       C  0.26787393  0.89393243  0.62115873     0.36100
C1052       C  0.24748137  0.86034422  0.61501696    -0.19900
C1053       C  0.26082998  0.84500363  0.60053651    -0.25200
C1054       C  0.29262536  0.86277269  0.59110992     0.27500
H1055       H  0.31505154  0.93692510  0.61731708     0.13200
N1056       N  0.25562777  0.91106735  0.63556103    -0.82500
H1057       H  0.24641789  0.81966755  0.59525477     0.18100
N1058       N  0.30452212  0.84707570  0.57486391    -0.81100
H1059       H  0.25734332  0.93144681  0.62578304     0.33700
H1060       H  0.27075800  0.91990448  0.65054748     0.38200
H1061       H  0.28725221  0.82223680  0.57252735     0.33700
H1062       H  0.30748449  0.85881629  0.55825094     0.30400
H1063       H  0.33802967  0.98036900  0.56145681     0.33700
H1064       H  0.30788796  0.94105640  0.56280736     0.30400
H1065       H  0.44198744  0.92676838  0.58223665     0.38200
H1066       H  0.41195838  0.88765034  0.58548095     0.33700
C1067       C  0.05397422  0.60857613  0.55198554    -0.20000
C1068       C  0.08812203  0.63036897  0.55245745     0.36200
C1069       C  0.10050899  0.65857537  0.56673270    -0.26000
C1070       C  0.07981786  0.66570298  0.58072786     0.02600
C1071       C  0.04566945  0.64450285  0.57989290     0.27400
C1072       C  0.03310468  0.61630079  0.56542764    -0.25100
N1073       N  0.11016678  0.62416711  0.53823015    -0.82500
H1074       H  0.12664344  0.67542489  0.56678947     0.13200
C1075       C  0.09491970  0.69602644  0.59553344     0.02600
N1076       N  0.02397025  0.65137629  0.59396521    -0.81100
H1077       H  0.00689730  0.59985439  0.56509946     0.18100
C1078       C  0.08521759  0.72057731  0.59242087    -0.25900
C1079       C  0.10360610  0.75219676  0.60236028     0.36100
C1080       C  0.13242143  0.75934101  0.61542075    -0.19900
C1081       C  0.14025881  0.73381586  0.62028595    -0.25200
C1082       C  0.12164738  0.70219177  0.61071485     0.27500
H1083       H  0.06454126  0.71582312  0.58093326     0.13200
N1084       N  0.09414020  0.77743393  0.59800770    -0.82500
H1085       H  0.16180226  0.73898969  0.63090959     0.18100
N1086       N  0.13043652  0.67655006  0.61563686    -0.81100
H1087       H  0.07186723  0.76780595  0.58874469     0.33700
H1088       H  0.11170622  0.79523994  0.58678535     0.38200
H1089       H  0.15088011  0.68515582  0.62690536     0.33700
H1090       H  0.11095444  0.65751822  0.62489624     0.30400
H1091       H  0.99958523  0.63346359  0.59125185     0.33700
H1092       H  0.02933946  0.64951022  0.61188342     0.30400
H1093       H  0.10485492  0.62639528  0.52035161     0.38200
H1094       H  0.13447671  0.64220317  0.54104656     0.33700
C1095       C  0.14111862  0.86282333  0.60609251    -0.20000
C1096       C  0.14309082  0.87215465  0.58176162     0.36200
C1097       C  0.12585145  0.88848974  0.57353041    -0.26000
C1098       C  0.10635431  0.89534405  0.58888467     0.02600
C1099       C  0.10319362  0.88488621  0.61292440     0.27400
C1100       C  0.12058077  0.86855960  0.62130613    -0.25100
N1101       N  0.16254560  0.86502581  0.56545851    -0.82500
H1102       H  0.12757640  0.89598172  0.55495676     0.13200
C1103       C  0.08955639  0.91351056  0.57908354     0.02600
N1104       N  0.08293434  0.89148991  0.62875384    -0.81100
H1105       H  0.11904045  0.86139322  0.63993412     0.18100
C1106       C  0.05530474  0.89739931  0.57739463    -0.25900
C1107       C  0.03879068  0.91212938  0.56509811     0.36100
C1108       C  0.05713311  0.94410696  0.55458166    -0.19900
C1109       C  0.09144503  0.96066632  0.55739940    -0.25200
C1110       C  0.10779107  0.94567510  0.56942176     0.27500
H1111       H  0.04150408  0.87259943  0.58482011     0.13200
N1112       N  0.00361827  0.89450546  0.56324327    -0.82500
H1113       H  0.10581547  0.98514393  0.54962055     0.18100
N1114       N  0.14295679  0.96268489  0.57148855    -0.81100
H1115       H  0.49626090  0.89559500  0.58332555     0.33700
H1116       H  0.49533135  0.87577716  0.55799811     0.38200
H1117       H  0.15280825  0.98604382  0.56323487     0.33700
H1118       H  0.14878651  0.96668351  0.58958580     0.30400
H1119       H  0.08319105  0.88210453  0.64582246     0.33700
H1120       H  0.09331487  0.91719329  0.63026706     0.30400
H1121       H  0.15228856  0.83931235  0.56433534     0.38200
H1122       H  0.16151874  0.87380325  0.54832277     0.33700
C1123       C  0.39590153  0.77804722  0.88031243    -0.20000
C1124       C  0.41574293  0.80886383  0.86866340     0.36200
C1125       C  0.43296865  0.83746342  0.88227011    -0.26000
C1126       C  0.43075483  0.83634103  0.90714279     0.02600
C1127       C  0.41080612  0.80598439  0.91883282     0.27400
C1128       C  0.39364004  0.77720358  0.90533887    -0.25100
N1129       N  0.41875939  0.81125310  0.84315320    -0.82500
H1130       H  0.44794864  0.86103124  0.87338296     0.13200
C1131       C  0.44897016  0.86754595  0.92047306     0.02600
N1132       N  0.40831607  0.80448325  0.94436412    -0.81100
H1133       H  0.37849071  0.75395346  0.91452160     0.18100
C1134       C  0.43164023  0.87877417  0.93449549    -0.25900
C1135       C  0.44760320  0.90968865  0.94542163     0.36100
C1136       C  0.48174884  0.93051611  0.94204984    -0.19900
C1137       C  0.49925982  0.91813504  0.92898086    -0.25200
C1138       C  0.48321572  0.88692631  0.91824257     0.27500
H1139       H  0.40531667  0.86386815  0.93641722     0.13200
N1140       N  0.42876340  0.92027899  0.95947190    -0.82500
H1141       H  0.02502504  0.93319538  0.92571557     0.18100
N1142       N  0.50150137  0.87487200  0.90483776    -0.81100
H1143       H  0.41771968  0.90295555  0.97326108     0.33700
H1144       H  0.41019940  0.92032907  0.94872896     0.38200
H1145       H  0.02599493  0.89339827  0.90314122     0.33700
H1146       H  0.49937988  0.85364716  0.91361607     0.30400
H1147       H  0.39253054  0.78032920  0.95021905     0.33700
H1148       H  0.43151661  0.81063289  0.95130709     0.30400
H1149       H  0.39638665  0.80793363  0.83619368     0.38200
H1150       H  0.43628439  0.83505159  0.83778360     0.33700
C1151       C  0.08107068  0.54684480  0.95030574    -0.20000
C1152       C  0.10769827  0.54654116  0.96249926     0.36200
C1153       C  0.13961429  0.56499165  0.95321639    -0.26000
C1154       C  0.14502185  0.58350681  0.93200171     0.02600
C1155       C  0.11866440  0.58570931  0.92090504     0.27400
C1156       C  0.08686799  0.56692024  0.92997294    -0.25100
N1157       N  0.10182841  0.52579837  0.98330694    -0.82500
H1158       H  0.15991352  0.56324635  0.96163033     0.13200
C1159       C  0.17658837  0.59567040  0.91922203     0.02600
N1160       N  0.12416040  0.60556387  0.89964073    -0.81100
H1161       H  0.06628595  0.56589899  0.92006179     0.18100
C1162       C  0.17655099  0.58004878  0.89803629    -0.25900
C1163       C  0.20496469  0.59119830  0.88424362     0.36100
C1164       C  0.23423872  0.61900187  0.89166514    -0.19900
C1165       C  0.23462900  0.63380563  0.91347990    -0.25200
C1166       C  0.20593805  0.62247513  0.92729533     0.27500
H1167       H  0.15400207  0.55905721  0.89216459     0.13200
N1168       N  0.20414677  0.57428597  0.86273692    -0.82500
H1169       H  0.25700416  0.65500752  0.91930582     0.18100
N1170       N  0.20626990  0.63847017  0.94911607    -0.81100
H1171       H  0.18068052  0.55463270  0.85972456     0.33700
H1172       H  0.21970671  0.56383472  0.86522675     0.38200
H1173       H  0.22977567  0.65779882  0.95254512     0.33700
H1174       H  0.19097690  0.64925477  0.94676495     0.30400
H1175       H  0.10219281  0.60427243  0.89350710     0.33700
H1176       H  0.13947549  0.63023120  0.90419585     0.30400
H1177       H  0.09230483  0.53465262  0.99642948     0.38200
H1178       H  0.12389945  0.52795963  0.99000804     0.33700
C1179       C  0.47628950  0.53673091  0.94291546    -0.20000
C1180       C  0.49308052  0.56978145  0.93461453     0.36200
C1181       C  0.47523373  0.58512913  0.92533008    -0.26000
C1182       C  0.44083568  0.56792131  0.92421702     0.02600
C1183       C  0.42392773  0.53561237  0.93388524     0.27400
C1184       C  0.44179637  0.52038149  0.94315138    -0.25100
N1185       N  0.02783328  0.58805945  0.93494962    -0.82500
H1186       H  0.48831497  0.61005505  0.91799640     0.13200
C1187       C  0.42284304  0.58277822  0.91117176     0.02600
N1188       N  0.38867567  0.51817934  0.93371777    -0.81100
H1189       H  0.42873077  0.49519811  0.95003372     0.18100
C1190       C  0.40707867  0.56857892  0.88973549    -0.25900
C1191       C  0.39027666  0.58202305  0.87636119     0.36100
C1192       C  0.38947112  0.61065555  0.88452521    -0.19900
C1193       C  0.40466791  0.62432448  0.90636433    -0.25200
C1194       C  0.42137326  0.61066761  0.91974169     0.27500
H1195       H  0.40806017  0.54691618  0.88337098     0.13200
N1196       N  0.37386086  0.56648692  0.85464908    -0.82500
H1197       H  0.40404445  0.64611115  0.91282232     0.18100
N1198       N  0.43691261  0.62498542  0.94194657    -0.81100
H1199       H  0.37726311  0.54605160  0.85105807     0.33700
H1200       H  0.34870026  0.55730900  0.85725307     0.38200
H1201       H  0.43369445  0.64547203  0.94573918     0.33700
H1202       H  0.42493837  0.60736454  0.95540216     0.30400
H1203       H  0.37998992  0.49453609  0.94132617     0.33700
H1204       H  0.38059629  0.53106871  0.94459916     0.30400
H1205       H  0.03511430  0.60905069  0.94537814     0.38200
H1206       H  0.03577684  0.59609084  0.91753823     0.33700
C1207       C  0.27339973  0.72106184  0.78392267    -0.20000
C1208       C  0.24468526  0.72000174  0.79318158     0.36200
C1209       C  0.22890485  0.73494868  0.78022396    -0.26000
C1210       C  0.24058125  0.75011961  0.75792102     0.02600
C1211       C  0.26882342  0.75037985  0.74842153     0.27400
C1212       C  0.28522567  0.73637910  0.76171588    -0.25100
N1213       N  0.23252548  0.70521504  0.81618747    -0.82500
H1214       H  0.20768489  0.73531488  0.78778152     0.13200
C1215       C  0.22440148  0.76767954  0.74562964     0.02600
N1216       N  0.28067452  0.76478576  0.72528400    -0.81100
H1217       H  0.30707995  0.73691890  0.75454185     0.18100
C1218       C  0.24360523  0.80097730  0.73884184    -0.25900
C1219       C  0.22948688  0.81927746  0.72844924     0.36100
C1220       C  0.19500537  0.80447151  0.72573391    -0.19900
C1221       C  0.17581566  0.77083424  0.73174625    -0.25200
C1222       C  0.19016463  0.75221094  0.74154568     0.27500
H1223       H  0.26983865  0.81296038  0.74194414     0.13200
N1224       N  0.25015661  0.85280221  0.72047446    -0.82500
H1225       H  0.14949682  0.75920074  0.72927050     0.18100
N1226       N  0.17012406  0.71774814  0.74748129    -0.81100
H1227       H  0.27484909  0.85993811  0.72382143     0.33700
H1228       H  0.24756709  0.85350329  0.70199114     0.38200
H1229       H  0.14549684  0.71020598  0.74350372     0.33700
H1230       H  0.17735141  0.70417032  0.73658446     0.30400
H1231       H  0.30169933  0.76309540  0.72094247     0.33700
H1232       H  0.26267293  0.75072173  0.71282679     0.30400
H1233       H  0.22304084  0.67962625  0.81464190     0.38200
H1234       H  0.21281621  0.70886462  0.82114686     0.33700
C1235       C  0.09027815  0.79311583  0.71544511    -0.20000
C1236       C  0.06358579  0.79497761  0.70466559     0.36200
C1237       C  0.03198923  0.77625381  0.71425965    -0.26000
C1238       C  0.02676237  0.75607668  0.73459465     0.02600
C1239       C  0.05324189  0.75265695  0.74441422     0.27400
C1240       C  0.08475807  0.77108575  0.73457537    -0.25100
N1241       N  0.06906539  0.81710763  0.68473717    -0.82500
H1242       H  0.01158640  0.77852283  0.70655084     0.13200
C1243       C  0.99441196  0.74141286  0.74680878     0.02600
N1244       N  0.04839110  0.73193662  0.76511124    -0.81100
H1245       H  0.10547672  0.77020573  0.74301246     0.18100
C1246       C  0.47651139  0.70754695  0.75077048    -0.25900
C1247       C  0.44680372  0.69298824  0.76353809     0.36100
C1248       C  0.43521808  0.71346765  0.77384616    -0.19900
C1249       C  0.45296253  0.74791871  0.76980379    -0.25200
C1250       C  0.48242804  0.76233231  0.75686505     0.27500
H1251       H  0.48571398  0.69198184  0.74328542     0.13200
N1252       N  0.42849867  0.65754257  0.76596516    -0.82500
H1253       H  0.44438591  0.76393755  0.77737758     0.18100
N1254       N  0.00068148  0.79728734  0.75287330    -0.81100
H1255       H  0.44072553  0.64630490  0.75774741     0.33700
H1256       H  0.40638993  0.64984362  0.75672782     0.38200
H1257       H  0.48816985  0.80914587  0.76141025     0.33700
H1258       H  0.02292141  0.80551410  0.76202038     0.30400
H1259       H  0.07029202  0.73209801  0.77005390     0.33700
H1260       H  0.04195828  0.74223284  0.77921293     0.30400
H1261       H  0.07780631  0.80888804  0.67068669     0.38200
H1262       H  0.04696915  0.81583190  0.67895550     0.33700
C1263       C  0.27216606  0.56186939  0.78200715    -0.20000
C1264       C  0.24401032  0.55614848  0.76851602     0.36200
C1265       C  0.22727270  0.52660713  0.75578314    -0.26000
C1266       C  0.23891371  0.00483087  0.75406432     0.02600
C1267       C  0.26575939  0.50817689  0.77002871     0.27400
C1268       C  0.28290284  0.53795473  0.78231985    -0.25100
N1269       N  0.23264505  0.58035927  0.76757933    -0.82500
H1270       H  0.20598957  0.52235310  0.74515817     0.13200
C1271       C  0.22009621  0.97364837  0.74069808     0.02600
N1272       N  0.27560421  0.98400573  0.77044280    -0.81100
H1273       H  0.30424671  0.54204281  0.79281049     0.18100
C1274       C  0.23695812  0.96277284  0.72584454    -0.25900
C1275       C  0.22131099  0.93114540  0.71601774     0.36100
C1276       C  0.18748895  0.90983712  0.72025403    -0.19900
C1277       C  0.17005683  0.92217169  0.73348348    -0.25200
C1278       C  0.18608652  0.95352531  0.74405019     0.27500
H1279       H  0.26294693  0.97841051  0.72271771     0.13200
N1280       N  0.24032971  0.92024844  0.70248161    -0.82500
H1281       H  0.14426165  0.90725169  0.73685865     0.18100
N1282       N  0.16816104  0.96438019  0.75899204    -0.81100
H1283       H  0.25070297  0.93670998  0.68812646     0.33700
H1284       H  0.25941026  0.92151198  0.71329135     0.38200
H1285       H  0.14331413  0.94686427  0.75950887     0.33700
H1286       H  0.17714351  0.96599845  0.77635516     0.30400
H1287       H  0.29601309  0.99136457  0.78163025     0.33700
H1288       H  0.25639511  0.96328627  0.77855976     0.30400
H1289       H  0.25058269  0.60147484  0.75891309     0.38200
H1290       H  0.21132358  0.57197619  0.75725849     0.33700
O1291       O  0.77680178  0.17867658  0.80714125    -0.78600
C1292       C  0.79123387  0.09263105  0.79664690     0.82400
O1293       O  0.79239385  0.14943296  0.88552891    -0.79800
O1294       O  0.87145451  0.12332326  0.84911280    -0.81200
O1295       O  0.89478397  0.21773162  0.79561501    -0.81000
O1296       O  0.82422259  0.22337406  0.79906234    -0.79700
Zn1297     Zn  0.78831194  0.14709417  0.82487176     1.55700
O1298       O  0.89463135  0.16935572  0.79917118    -0.81100
Cd1299     Cd  0.85717032  0.21280632  0.81806638     1.59700
Cd1300     Cd  0.83853037  0.17042916  0.86916665     1.59600
O1301       O  0.87820784  0.24769334  0.84437978    -0.81000
O1302       O  0.83434532  0.16783516  0.83342899    -1.91600
Cd1303     Cd  0.85493834  0.14148082  0.82124637     1.59900
O1304       O  0.86540505  0.21971387  0.87886934    -0.81000
O1305       O  0.82114143  0.10196223  0.80196363    -0.79700
C1306       C  0.76380639  0.13387954  0.87631343     0.82900
C1307       C  0.79300363  0.20727583  0.79761796     0.82500
O1308       O  0.77632599  0.10790345  0.80405207    -0.78600
C1309       C  0.90681192  0.19868997  0.79054647     0.83300
O1310       O  0.75979960  0.13113616  0.85384993    -0.78700
C1311       C  0.87943224  0.24697456  0.86706051     0.83500
C1312       C  0.87330916  0.12697806  0.87161424     0.83800
O1313       O  0.86274693  0.14468418  0.88184812    -0.78700
C1314       C  0.67125615  0.37246567  0.71330845     0.86300
C1315       C  0.68945018  0.35522917  0.72482621    -0.53900
C1316       C  0.67973265  0.32385731  0.71720127     0.09300
C1317       C  0.65114289  0.31166070  0.69917664     0.20200
C1318       C  0.67399967  0.36943144  0.68638910    -0.54600
C1319       C  0.66399763  0.33791196  0.67902391     0.09400
C1320       C  0.63491465  0.34874572  0.71867265    -0.54200
C1321       C  0.62448459  0.31704662  0.71142588     0.09900
H1322       H  0.70861143  0.36717506  0.73808071     0.14500
H1323       H  0.64267308  0.28600840  0.69299380     0.00200
H1324       H  0.68490811  0.39066371  0.67429802     0.14800
H1325       H  0.61827041  0.35532179  0.72752577     0.14500
C1326       C  0.99873020  0.46718803  0.95064747     0.86300
C1327       C  0.53599996  0.48973298  0.94694903    -0.53900
C1328       C  0.54618827  0.02018438  0.95529142     0.09300
C1329       C  0.52010996  0.02585071  0.96826297     0.20200
C1330       C  0.99469548  0.46810818  0.97758860    -0.54600
C1331       C  0.50584190  0.99800675  0.98734637     0.09400
C1332       C  0.98246949  0.48673233  0.93978149    -0.54200
C1333       C  0.99225709  0.01657946  0.95011520     0.09900
H1334       H  0.55209337  0.48326951  0.93720577     0.14500
H1335       H  0.52928856  0.05109856  0.97535339     0.00200
H1336       H  0.98240622  0.44585485  0.98860240     0.14800
H1337       H  0.96309776  0.47643561  0.92647896     0.14500
O1338       O  0.94232213  0.49370074  0.53558818    -0.78600
C1339       C  0.54023541  0.07882395  0.53763455     0.82400
O1340       O  0.97853768  0.02788717  0.45289312    -0.79800
O1341       O  0.58136081  0.03742953  0.48472543    -0.81200
O1342       O  0.51328463  0.44416895  0.53089305    -0.81000
O1343       O  0.94238342  0.44530348  0.53452130    -0.79700
Zn1344     Zn  0.98049262  0.02500166  0.51345560     1.55700
O1345       O  0.55857444  0.49235938  0.53420959    -0.81100
Cd1346     Cd  0.98027672  0.45459894  0.51172928     1.59700
Cd1347     Cd  0.00225270  0.50342775  0.46492232     1.59600
O1348       O  0.96297999  0.42303715  0.48325179    -0.81000
O1349       O  0.00207395  0.50171937  0.50072050    -1.91600
Cd1350     Cd  0.54887277  0.02428671  0.51278888     1.59900
O1351       O  0.97919594  0.45584424  0.45103363    -0.81000
O1352       O  0.55833978  0.06616839  0.53176901    -0.79700
C1353       C  0.96230050  0.03980371  0.46341256     0.82900
C1354       C  0.93093911  0.46355100  0.54239660     0.82500
O1355       O  0.51002521  0.06547265  0.53169332    -0.78600
C1356       C  0.54224146  0.46139571  0.53890571     0.83300
O1357       O  0.96102501  0.03973599  0.48612436    -0.78700
C1358       C  0.96512293  0.42703851  0.46070495     0.83500
C1359       C  0.57867189  0.03738301  0.46210246     0.83800
O1360       O  0.55087622  0.02708636  0.45177080    -0.81100
C1361       C  0.84955154  0.20835850  0.37740957     0.86300
C1362       C  0.86536506  0.18742822  0.38684084    -0.53900
C1363       C  0.84947608  0.15494099  0.38059704     0.09300
C1364       C  0.81824344  0.14566293  0.36565654     0.20200
C1365       C  0.84613128  0.20264724  0.35058701    -0.54600
C1366       C  0.83030160  0.17004645  0.34423449     0.09400
C1367       C  0.81452988  0.18951063  0.38714386    -0.54200
C1368       C  0.79788028  0.15688759  0.38096664     0.09900
H1369       H  0.88670057  0.19683940  0.39843147     0.14500
H1370       H  0.80523244  0.11918644  0.36060030     0.00200
H1371       H  0.85815876  0.22271100  0.33767149     0.14800
H1372       H  0.80407465  0.20048004  0.39890506     0.14500
C1373       C  0.71095578  0.34347152  0.62248220     0.86300
C1374       C  0.69376773  0.36141610  0.61056183    -0.53900
C1375       C  0.66147174  0.34898319  0.61621804     0.09300
C1376       C  0.64899561  0.31947949  0.63393656     0.20200
C1377       C  0.70503450  0.34415359  0.64918332    -0.54600
C1378       C  0.67289734  0.33216935  0.65516047     0.09400
C1379       C  0.68926327  0.30678525  0.61597290    -0.54200
C1380       C  0.65689661  0.29422518  0.62189007     0.09900
H1381       H  0.70655962  0.38280879  0.59884820     0.14500
H1382       H  0.62287139  0.30946230  0.63901396     0.00200
H1383       H  0.72473635  0.35499490  0.66217182     0.14800
H1384       H  0.69776636  0.29144469  0.60732789     0.14500
O1385       O  0.67354870  0.26929324  0.19634425    -0.78600
C1386       C  0.58941632  0.28471998  0.20251216     0.82400
O1387       O  0.64185766  0.28720047  0.11515281    -0.79800
O1388       O  0.62421198  0.37073177  0.15404919    -0.81200
O1389       O  0.72044191  0.38843121  0.20067806    -0.81000
O1390       O  0.72116402  0.31542854  0.19843338    -0.79700
Zn1391     Zn  0.64462326  0.28141505  0.17567234     1.55700
O1392       O  0.67229958  0.38810133  0.20302377    -0.81100
Cd1393     Cd  0.71164338  0.34894622  0.17887682     1.59700
Cd1394     Cd  0.66523366  0.33322476  0.13105664     1.59600
O1395       O  0.74408250  0.36566666  0.15058216    -0.81000
O1396       O  0.66553945  0.32805594  0.16662674    -1.91600
Cd1397     Cd  0.64157637  0.35031030  0.18049166     1.59900
O1398       O  0.71273545  0.35721758  0.11824144    -0.81000
O1399       O  0.60129484  0.31591036  0.19937920    -0.79700
C1400       C  0.63186125  0.25829407  0.12412375     0.82900
C1401       C  0.70310032  0.28487372  0.20364623     0.82500
O1402       O  0.60335447  0.26906185  0.19400682    -0.78600
C1403       C  0.70260079  0.40035834  0.20861585     0.83300
O1404       O  0.63275587  0.25335073  0.14645017    -0.78700
C1405       C  0.74074508  0.36757002  0.12811189     0.83500
C1406       C  0.62647951  0.37258643  0.13137629     0.83800
O1407       O  0.64163991  0.36004504  0.12021281    -0.81100
C1408       C  0.96020877  0.48523896  0.04519456     0.86300
C1409       C  0.97761192  0.01965093  0.05373193    -0.53900
C1410       C  0.51033840  0.03737516  0.04689142     0.09300
C1411       C  0.52202257  0.01652249  0.03246493     0.20200
C1412       C  0.96486575  0.48654320  0.01805926    -0.54600
C1413       C  0.49711190  0.00196437  0.01187853     0.09400
C1414       C  0.98180363  0.47060442  0.05470455    -0.54200
C1415       C  0.51254782  0.48524637  0.04827048     0.09900
H1416       H  0.96522187  0.03041164  0.06377549     0.14500
H1417       H  0.54794008  0.02980644  0.02660557     0.00200
H1418       H  0.94546147  0.47381410  0.00522220     0.14800
H1419       H  0.97241253  0.44842549  0.06589659     0.14500
C1420       C  0.86929213  0.16633629  0.28550251     0.86300
C1421       C  0.84930785  0.18101359  0.27307388    -0.53900
C1422       C  0.81774539  0.16831697  0.28076925     0.09300
C1423       C  0.80910817  0.14270829  0.30127075     0.20200
C1424       C  0.86704317  0.17274255  0.31201322    -0.54600
C1425       C  0.83581568  0.16079947  0.32024043     0.09400
C1426       C  0.84850794  0.12877146  0.28326372    -0.54200
C1427       C  0.81697154  0.11614312  0.29119506     0.09900
H1428       H  0.85978727  0.20066595  0.25971998     0.14500
H1429       H  0.78373541  0.13294331  0.30803253     0.00200
H1430       H  0.88766066  0.18689314  0.32358751     0.14800
H1431       H  0.85767782  0.11358405  0.27499836     0.14500
C1432       C  0.92549027  0.46630079  0.05549659    -0.20000
C1433       C  0.92125553  0.46457716  0.08054641     0.36200
C1434       C  0.89003982  0.44627979  0.09043550    -0.26000
C1435       C  0.86240095  0.42912639  0.07603901     0.02600
C1436       C  0.86600580  0.43059874  0.05110914     0.27400
C1437       C  0.89737961  0.44930555  0.04106206    -0.25100
N1438       N  0.94882306  0.48130088  0.09615530    -0.82500
H1439       H  0.88736292  0.44559241  0.10961704     0.13200
C1440       C  0.82988129  0.41066103  0.08760313     0.02600
N1441       N  0.83781999  0.41277116  0.03611992    -0.81100
H1442       H  0.89924032  0.44988715  0.02196574     0.18100
C1443       C  0.80534567  0.41944200  0.08226031    -0.25900
C1444       C  0.77542979  0.40488092  0.09463837     0.36100
C1445       C  0.77044576  0.38169312  0.11314293    -0.19900
C1446       C  0.79471702  0.37238936  0.11807814    -0.25200
C1447       C  0.82415817  0.38621305  0.10522269     0.27500
H1448       H  0.80993310  0.43837693  0.06881018     0.13200
N1449       N  0.75095393  0.41487772  0.08932711    -0.82500
H1450       H  0.79059896  0.35414831  0.13199542     0.18100
N1451       N  0.84841930  0.37576924  0.11006794    -0.81100
H1452       H  0.75952032  0.43383051  0.07643176     0.33700
H1453       H  0.73094899  0.39473580  0.08161727     0.38200
H1454       H  0.84045725  0.35765338  0.12357073     0.33700
H1455       H  0.85080547  0.36456893  0.09471576     0.30400
H1456       H  0.84450065  0.41643613  0.01816382     0.33700
H1457       H  0.82874379  0.38750578  0.03980798     0.30400
H1458       H  0.94479909  0.49779989  0.10640572     0.38200
H1459       H  0.94996197  0.46367211  0.10764657     0.33700
C1460       C  0.61865217  0.22932828  0.10849854    -0.20000
C1461       C  0.59316103  0.22316780  0.09209472     0.36200
C1462       C  0.57849640  0.19300157  0.07987011    -0.26000
C1463       C  0.58914635  0.16933252  0.08367816     0.02600
C1464       C  0.61597245  0.17641800  0.09891043     0.27400
C1465       C  0.63026747  0.20627887  0.11137997    -0.25100
N1466       N  0.58136060  0.24682313  0.08872083    -0.82500
H1467       H  0.55782214  0.18728201  0.06811929     0.13200
C1468       C  0.56950995  0.13575018  0.07405898     0.02600
N1469       N  0.62840020  0.15317973  0.10174252    -0.81100
H1470       H  0.65021152  0.21139925  0.12373318     0.18100
C1471       C  0.57505431  0.12860733  0.05093096    -0.25900
C1472       C  0.55604660  0.09676388  0.04144602     0.36100
C1473       C  0.53176616  0.07153927  0.05571482    -0.19900
C1474       C  0.52679937  0.07899458  0.07901609    -0.25200
C1475       C  0.54490638  0.11088869  0.08813469     0.27500
H1476       H  0.59379150  0.14809129  0.04015533     0.13200
N1477       N  0.56049329  0.09040851  0.01720654    -0.82500
H1478       H  0.00751291  0.06082575  0.08983494     0.18100
N1479       N  0.53781902  0.11839688  0.11141777    -0.81100
H1480       H  0.57951952  0.11145176  0.00925704     0.33700
H1481       H  0.53906862  0.08583038  0.00797513     0.38200
H1482       H  0.01628379  0.09940961  0.11785100     0.33700
H1483       H  0.55814124  0.12408498  0.12235856     0.30400
H1484       H  0.64865898  0.16251581  0.11321020     0.33700
H1485       H  0.61031691  0.13172708  0.10993509     0.30400
H1486       H  0.57095134  0.24831293  0.10475982     0.38200
H1487       H  0.56259169  0.23851348  0.07598589     0.33700
C1488       C  0.61147443  0.39002689  0.11747993    -0.20000
C1489       C  0.58348961  0.39164401  0.12564095     0.36200
C1490       C  0.57069854  0.40895052  0.11198637    -0.26000
C1491       C  0.58493109  0.42434034  0.09026921     0.02600
C1492       C  0.61237614  0.42232462  0.08183203     0.27400
C1493       C  0.62540378  0.40524185  0.09551394    -0.25100
N1494       N  0.56769881  0.37516443  0.14744283    -0.82500
H1495       H  0.54921524  0.41014697  0.11813946     0.13200
C1496       C  0.56962207  0.44112796  0.07621233     0.02600
N1497       N  0.62692267  0.43771195  0.05946488    -0.81100
H1498       H  0.64674034  0.40403813  0.08905996     0.18100
C1499       C  0.58139497  0.47538862  0.07835345    -0.25900
C1500       C  0.56427115  0.49088784  0.06796815     0.36100
C1501       C  0.53502516  0.47184471  0.05529886    -0.19900
C1502       C  0.52452984  0.43800221  0.05194131    -0.25200
C1503       C  0.54152935  0.42246120  0.06226661     0.27500
H1504       H  0.60309891  0.48983026  0.08898542     0.13200
N1505       N  0.57219917  0.02551367  0.07768219    -0.82500
H1506       H  0.50222373  0.42339270  0.04194031     0.18100
N1507       N  0.52969491  0.38753019  0.05947236    -0.81100
H1508       H  0.59118533  0.03475463  0.09023995     0.33700
H1509       H  0.58116594  0.04062634  0.06251087     0.38200
H1510       H  0.50843850  0.37727291  0.04899874     0.33700
H1511       H  0.54746097  0.38458602  0.05009550     0.30400
H1512       H  0.64714228  0.43421603  0.05587685     0.33700
H1513       H  0.60966531  0.42559931  0.04607270     0.30400
H1514       H  0.55820116  0.34970199  0.14499768     0.38200
H1515       H  0.54768823  0.37904697  0.15095208     0.33700
C1516       C  0.79513893  0.18000963  0.27082310    -0.20000
C1517       C  0.78885017  0.17962306  0.24604955     0.36200
C1518       C  0.77086048  0.19472397  0.23713885    -0.26000
C1519       C  0.75935286  0.21088785  0.25222246     0.02600
C1520       C  0.76382540  0.20970646  0.27706413     0.27400
C1521       C  0.78138930  0.19385960  0.28616214    -0.25100
N1522       N  0.80040027  0.16420905  0.22943264    -0.82500
H1523       H  0.76692847  0.19502427  0.21808828     0.13200
C1524       C  0.74522051  0.23110036  0.24130900     0.02600
N1525       N  0.75155604  0.22555584  0.29281497    -0.81100
H1526       H  0.78587560  0.19387307  0.30515038     0.18100
C1527       C  0.71199477  0.22190127  0.24445078    -0.25900
C1528       C  0.69772790  0.23949363  0.23284335     0.36100
C1529       C  0.71720358  0.26685956  0.21778646    -0.19900
C1530       C  0.75070667  0.27657201  0.21538759    -0.25200
C1531       C  0.76485054  0.25895864  0.22690335     0.27500
H1532       H  0.69707347  0.20060256  0.25565439     0.13200
N1533       N  0.66363431  0.22970547  0.23634365    -0.82500
H1534       H  0.76579785  0.29750540  0.20394161     0.18100
N1535       N  0.79907428  0.26895888  0.22380863    -0.81100
H1536       H  0.65282044  0.20905153  0.24775449     0.33700
H1537       H  0.66235685  0.24905944  0.24495590     0.38200
H1538       H  0.81005625  0.28969122  0.21248732     0.33700
H1539       H  0.81052280  0.27626561  0.24040281     0.30400
H1540       H  0.75685704  0.22237340  0.31052558     0.33700
H1541       H  0.76418108  0.25100111  0.28912530     0.30400
H1542       H  0.79352122  0.14007287  0.23530033     0.38200
H1543       H  0.82589905  0.17741633  0.22857987     0.33700
C1544       C  0.71735077  0.42936860  0.22473327    -0.20000
C1545       C  0.75150658  0.45142941  0.22509816     0.36200
C1546       C  0.76401586  0.47878521  0.24029484    -0.26000
C1547       C  0.74258522  0.98581145  0.25395777     0.02600
C1548       C  0.70938223  0.46298357  0.25484964     0.27400
C1549       C  0.69674964  0.43545092  0.23976121    -0.25100
N1550       N  0.77333583  0.44673398  0.20955136    -0.82500
H1551       H  0.78891519  0.99742401  0.23807744     0.13200
C1552       C  0.75733994  0.01647448  0.26838495     0.02600
N1553       N  0.68792537  0.46871761  0.27005718    -0.81100
H1554       H  0.67062243  0.41862070  0.23978412     0.18100
C1555       C  0.74554962  0.03947542  0.26584076    -0.25900
C1556       C  0.76296425  0.07139961  0.27531356     0.36100
C1557       C  0.79296873  0.08073235  0.28724094    -0.19900
C1558       C  0.80296632  0.05663767  0.29177461    -0.25200
C1559       C  0.78534542  0.02455926  0.28263459     0.27500
H1560       H  0.72385197  0.03342388  0.25516308     0.13200
N1561       N  0.75101245  0.09470293  0.27147025    -0.82500
H1562       H  0.82555236  0.06341649  0.30151494     0.18100
N1563       N  0.79640296  0.00049180  0.28699645    -0.81100
H1564       H  0.74766453  0.09650911  0.25317567     0.33700
H1565       H  0.72800724  0.08510340  0.27951609     0.38200
H1566       H  0.81749018  0.01041217  0.29764792     0.33700
H1567       H  0.77401112  0.48039466  0.30024305     0.30400
H1568       H  0.66363262  0.45029079  0.26785441     0.33700
H1569       H  0.69442080  0.46673057  0.28767219     0.30400
H1570       H  0.76751170  0.45032374  0.19206925     0.38200
H1571       H  0.79763739  0.46474834  0.21242025     0.33700
C1572       C  0.55837966  0.26583501  0.21599249    -0.20000
C1573       C  0.54588137  0.28159041  0.23102472     0.36200
C1574       C  0.51569678  0.26257911  0.24244647    -0.26000
C1575       C  0.99785196  0.22787134  0.24009357     0.02600
C1576       C  0.01080776  0.21184885  0.22598930     0.27400
C1577       C  0.54062263  0.23121884  0.21344145    -0.25100
N1578       N  0.56383238  0.31669294  0.23485181    -0.82500
H1579       H  0.50576114  0.27468027  0.25357743     0.13200
C1580       C  0.96593175  0.20922622  0.25238836     0.02600
N1581       N  0.99365047  0.17640303  0.22388820    -0.81100
H1582       H  0.54994732  0.21884428  0.20203664     0.18100
C1583       C  0.93750204  0.19079519  0.23900237    -0.25900
C1584       C  0.90651620  0.17595265  0.24972359     0.36100
C1585       C  0.90346522  0.17965394  0.27444047    -0.19900
C1586       C  0.93250070  0.19661080  0.28794767    -0.25200
C1587       C  0.96352013  0.21144657  0.27716832     0.27500
H1588       H  0.93924611  0.18881746  0.21993182     0.13200
N1589       N  0.87802523  0.15772022  0.23524767    -0.82500
H1590       H  0.93181644  0.19887784  0.30691103     0.18100
N1591       N  0.99270588  0.22914244  0.29125957    -0.81100
H1592       H  0.87776418  0.17351459  0.22168023     0.33700
H1593       H  0.88022319  0.13842873  0.22734417     0.38200
H1594       H  0.98686597  0.22888516  0.30920851     0.33700
H1595       H  0.50614100  0.21509376  0.28960605     0.30400
H1596       H  0.00639988  0.16848114  0.21276814     0.33700
H1597       H  0.99323570  0.16619421  0.24076470     0.30400
H1598       H  0.58538534  0.32145638  0.24399522     0.38200
H1599       H  0.55078700  0.32430514  0.24593872     0.33700
C1600       C  0.76492897  0.13453767  0.39102530    -0.20000
C1601       C  0.73830803  0.11288495  0.37677941     0.36200
C1602       C  0.70705629  0.09435837  0.38721035    -0.26000
C1603       C  0.70203238  0.09743938  0.41148951     0.02600
C1604       C  0.72886991  0.11884655  0.42568154     0.27400
C1605       C  0.75994037  0.13675215  0.41537939    -0.25100
N1606       N  0.74286667  0.11045302  0.35177533    -0.82500
H1607       H  0.68647002  0.07778171  0.37636112     0.13200
C1608       C  0.66875329  0.07874753  0.42216988     0.02600
N1609       N  0.72431231  0.12286630  0.45046056    -0.81100
H1610       H  0.78044056  0.15305184  0.42642040     0.18100
C1611       C  0.66449062  0.05831436  0.44215715    -0.25900
C1612       C  0.63510466  0.04410670  0.45501649     0.36100
C1613       C  0.60893193  0.04973472  0.44762380    -0.19900
C1614       C  0.61234711  0.06837476  0.42670718    -0.25200
C1615       C  0.64219083  0.08336379  0.41407132     0.27500
H1616       H  0.68454644  0.05417575  0.44826562     0.13200
N1617       N  0.63193234  0.02383946  0.47557485    -0.82500
H1618       H  0.59223962  0.07257042  0.42085974     0.18100
N1619       N  0.64598666  0.10417163  0.39361557    -0.81100
H1620       H  0.65209072  0.51803457  0.47500801     0.33700
H1621       H  0.63377740  0.53607202  0.48948854     0.38200
H1622       H  0.62416410  0.10492179  0.38997456     0.33700
H1623       H  0.66351340  0.12830014  0.39786368     0.30400
H1624       H  0.74654345  0.13931587  0.45841932     0.33700
H1625       H  0.70898568  0.13371246  0.45142717     0.30400
H1626       H  0.72087221  0.09341322  0.34385066     0.38200
H1627       H  0.74917194  0.13351385  0.34387312     0.33700
C1628       C  0.86877733  0.24525104  0.38376587    -0.20000
C1629       C  0.85363854  0.26572157  0.38558087     0.36200
C1630       C  0.87127280  0.29741233  0.39557267    -0.26000
C1631       C  0.90418443  0.30984024  0.40240056     0.02600
C1632       C  0.92061753  0.29169875  0.39718791     0.27400
C1633       C  0.90297161  0.25997167  0.38758732    -0.25100
N1634       N  0.82056546  0.25441626  0.37739729    -0.82500
H1635       H  0.85907048  0.31210924  0.39865387     0.13200
C1636       C  0.92066183  0.34056392  0.41652953     0.02600
N1637       N  0.95511041  0.30541140  0.40214090    -0.81100
H1638       H  0.91621970  0.24669683  0.38339576     0.18100
C1639       C  0.93171060  0.33846816  0.43951431    -0.25900
C1640       C  0.94710334  0.36644378  0.45394230     0.36100
C1641       C  0.95079958  0.39726816  0.44542720    -0.19900
C1642       C  0.94033790  0.39947344  0.42213983    -0.25200
C1643       C  0.92539713  0.37140923  0.40757174     0.27500
H1644       H  0.92828030  0.31473157  0.44622464     0.13200
N1645       N  0.95934948  0.36364522  0.47706347    -0.82500
H1646       H  0.94344075  0.42305649  0.41538063     0.18100
N1647       N  0.91514399  0.37407870  0.38374426    -0.81100
H1648       H  0.95429026  0.33923580  0.48066221     0.33700
H1649       H  0.98489755  0.37786057  0.47666722     0.38200
H1650       H  0.92039298  0.39847394  0.37985285     0.33700
H1651       H  0.92914094  0.36845276  0.37207145     0.30400
H1652       H  0.96356110  0.28883617  0.39749588     0.33700
H1653       H  0.96742622  0.32641662  0.39123556     0.30400
H1654       H  0.82028959  0.25121734  0.35900232     0.38200
H1655       H  0.81324183  0.27242163  0.38009012     0.33700
C1656       C  0.86230638  0.13206971  0.38839662    -0.20000
C1657       C  0.84313773  0.10285108  0.40169655     0.36200
C1658       C  0.85829000  0.08545724  0.41234066    -0.26000
C1659       C  0.89218244  0.09692734  0.41007060     0.02600
C1660       C  0.91097121  0.12529127  0.39587681     0.27400
C1661       C  0.89579326  0.14235008  0.38505936    -0.25100
N1662       N  0.80883774  0.09183500  0.40531519    -0.82500
H1663       H  0.84389905  0.06353680  0.42314834     0.13200
C1664       C  0.90834002  0.08052471  0.42376031     0.02600
N1665       N  0.94565923  0.13739306  0.39325977    -0.81100
H1666       H  0.91047943  0.16471383  0.37474379     0.18100
C1667       C  0.92495644  0.06664444  0.41156750    -0.25900
C1668       C  0.94308652  0.05362400  0.42383794     0.36100
C1669       C  0.94411159  0.05383908  0.44913200    -0.19900
C1670       C  0.92682399  0.06734303  0.46121674    -0.25200
C1671       C  0.90930428  0.08091491  0.44884247     0.27500
H1672       H  0.92431531  0.06664069  0.39227348     0.13200
N1673       N  0.96045304  0.04042981  0.41054438    -0.82500
H1674       H  0.92727353  0.06779746  0.48049259     0.18100
N1675       N  0.89300668  0.09571135  0.46164659    -0.81100
H1676       H  0.95550191  0.04042333  0.39233217     0.33700
H1677       H  0.98551845  0.05658362  0.41259444     0.38200
H1678       H  0.89590772  0.09388750  0.48001408     0.33700
H1679       H  0.90460311  0.12099028  0.45731965     0.30400
H1680       H  0.95588015  0.15841980  0.38217031     0.33700
H1681       H  0.95650702  0.14490542  0.41001781     0.30400
H1682       H  0.80692545  0.10951713  0.41567921     0.38200
H1683       H  0.79820507  0.06969240  0.41519380     0.33700
C1684       C  0.90309625  0.44892706  0.55933363    -0.20000
C1685       C  0.89740600  0.42139788  0.57411968     0.36200
C1686       C  0.86836523  0.40562423  0.58745004    -0.26000
C1687       C  0.84483548  0.41661134  0.58629520     0.02600
C1688       C  0.85155017  0.44545332  0.57281862     0.27400
C1689       C  0.88077609  0.46148648  0.55970550    -0.25100
N1690       N  0.92093672  0.40936417  0.57541813    -0.82500
H1691       H  0.86361325  0.38408829  0.59836693     0.13200
C1692       C  0.81236463  0.39639490  0.59777530     0.02600
N1693       N  0.82810407  0.45760110  0.57170720    -0.81100
H1694       H  0.88525665  0.48286941  0.54870750     0.18100
C1695       C  0.80013562  0.41132735  0.61333381    -0.25900
C1696       C  0.76797013  0.39412297  0.62196170     0.36100
C1697       C  0.74743135  0.36060764  0.61572321    -0.19900
C1698       C  0.76074601  0.34517813  0.60127615    -0.25200
C1699       C  0.79262038  0.36279759  0.59196498     0.27500
H1700       H  0.81527452  0.43699723  0.61814354     0.13200
N1701       N  0.75583524  0.41131055  0.63640866    -0.82500
H1702       H  0.74626705  0.31990215  0.59589832     0.18100
N1703       N  0.80451023  0.34700818  0.57579283    -0.81100
H1704       H  0.75773981  0.43181567  0.62669896     0.33700
H1705       H  0.77091716  0.41995888  0.65143550     0.38200
H1706       H  0.78717134  0.32219769  0.57342927     0.33700
H1707       H  0.80761829  0.35876012  0.55917156     0.30400
H1708       H  0.83692919  0.47918259  0.56122559     0.33700
H1709       H  0.80708654  0.43978119  0.56318198     0.30400
H1710       H  0.94238771  0.42795415  0.58297528     0.38200
H1711       H  0.91280434  0.38875664  0.58686249     0.33700
C1712       C  0.55445776  0.10950991  0.55201178    -0.20000
C1713       C  0.58857071  0.13151226  0.55235313     0.36200
C1714       C  0.60096803  0.15931736  0.56702948    -0.26000
C1715       C  0.58028402  0.16594455  0.58141079     0.02600
C1716       C  0.54617755  0.14454980  0.58072938     0.27400
C1717       C  0.53361468  0.11664802  0.56597390    -0.25100
N1718       N  0.61054870  0.12596947  0.53755086    -0.82500
H1719       H  0.62706412  0.17633387  0.56700895     0.13200
C1720       C  0.59525874  0.19622694  0.59621380     0.02600
N1721       N  0.52452606  0.15099009  0.59520227    -0.81100
H1722       H  0.50744537  0.10001061  0.56578476     0.18100
C1723       C  0.58541067  0.22064146  0.59297735    -0.25900
C1724       C  0.60372407  0.25235812  0.60274900     0.36100
C1725       C  0.63249032  0.25966924  0.61590393    -0.19900
C1726       C  0.64049102  0.23427380  0.62090294    -0.25200
C1727       C  0.62207076  0.20260264  0.61135408     0.27500
H1728       H  0.56471535  0.21571365  0.58146023     0.13200
N1729       N  0.59429195  0.27755559  0.59807382    -0.82500
H1730       H  0.66205205  0.23961145  0.63155665     0.18100
N1731       N  0.63116742  0.17716710  0.61621556    -0.81100
H1732       H  0.57209555  0.26783425  0.58870889     0.33700
H1733       H  0.61195459  0.29525881  0.58684136     0.38200
H1734       H  0.65166786  0.18593972  0.62743729     0.33700
H1735       H  0.61181969  0.15802870  0.62550655     0.30400
H1736       H  0.50015669  0.13299525  0.59255432     0.33700
H1737       H  0.53015230  0.14889109  0.61302281     0.30400
H1738       H  0.60487691  0.12857742  0.51982645     0.38200
H1739       H  0.63483461  0.14411673  0.54028897     0.33700
C1740       C  0.64105959  0.36328029  0.60606074    -0.20000
C1741       C  0.64347291  0.37283740  0.58175127     0.36200
C1742       C  0.62644339  0.38932814  0.57333576    -0.26000
C1743       C  0.60662750  0.39608517  0.58844923     0.02600
C1744       C  0.60288011  0.38522766  0.61243666     0.27400
C1745       C  0.62012171  0.36880606  0.62101482    -0.25100
N1746       N  0.66312163  0.36571831  0.56563095    -0.82500
H1747       H  0.62854860  0.39697275  0.55477849     0.13200
C1748       C  0.58997974  0.41436865  0.57840322     0.02600
N1749       N  0.58216884  0.39150860  0.62803322    -0.81100
H1750       H  0.61813768  0.36139109  0.63961186     0.18100
C1751       C  0.55571970  0.39848107  0.57676399    -0.25900
C1752       C  0.53932420  0.41320519  0.56427479     0.36100
C1753       C  0.55775833  0.44499563  0.55348367    -0.19900
C1754       C  0.59208157  0.46136730  0.55621009    -0.25200
C1755       C  0.60832377  0.44637014  0.56844067     0.27500
H1756       H  0.54178795  0.37382078  0.58438773     0.13200
N1757       N  0.50413632  0.39576602  0.56253419    -0.82500
H1758       H  0.60651183  0.48569686  0.54822232     0.18100
N1759       N  0.64349358  0.46323355  0.57045175    -0.81100
H1760       H  0.99841940  0.36200055  0.55289672     0.33700
H1761       H  0.00913896  0.38638162  0.52859549     0.38200
H1762       H  0.65343509  0.48646037  0.56199122     0.33700
H1763       H  0.64938750  0.46751306  0.58852188     0.30400
H1764       H  0.58198806  0.38183037  0.64507180     0.33700
H1765       H  0.59245931  0.41717384  0.62975615     0.30400
H1766       H  0.65276894  0.33999908  0.56443582     0.38200
H1767       H  0.66241748  0.37463756  0.54848471     0.33700
C1768       C  0.89770164  0.27862109  0.88018855    -0.20000
C1769       C  0.91884424  0.30902265  0.86852737     0.36200
C1770       C  0.93610870  0.33773117  0.88203315    -0.26000
C1771       C  0.93264015  0.33711371  0.90679723     0.02600
C1772       C  0.91156195  0.30712923  0.91848906     0.27400
C1773       C  0.89437757  0.27825192  0.90510929    -0.25100
N1774       N  0.92310374  0.31087533  0.84312096    -0.82500
H1775       H  0.95200284  0.36101458  0.87312663     0.13200
C1776       C  0.95045839  0.36851096  0.91997335     0.02600
N1777       N  0.90787433  0.30611878  0.94391776    -0.81100
H1778       H  0.87828023  0.25531232  0.91429595     0.18100
C1779       C  0.93260821  0.38031057  0.93283632    -0.25900
C1780       C  0.94825770  0.41131285  0.94364267     0.36100
C1781       C  0.98263353  0.43173382  0.94123530    -0.19900
C1782       C  0.00060297  0.41882431  0.92932555    -0.25200
C1783       C  0.98485521  0.38745593  0.91877611     0.27500
H1784       H  0.90615750  0.36573595  0.93397566     0.13200
N1785       N  0.92890303  0.42238102  0.95660987    -0.82500
H1786       H  0.52695364  0.43304398  0.92715472     0.18100
N1787       N  0.00360997  0.37475867  0.90667578    -0.81100
H1788       H  0.91690126  0.40523066  0.97032035     0.33700
H1789       H  0.91109817  0.42259662  0.94509685     0.38200
H1790       H  0.52841842  0.39254970  0.90561302     0.33700
H1791       H  0.00059687  0.35355533  0.91599304     0.30400
H1792       H  0.89133777  0.28220277  0.94978499     0.33700
H1793       H  0.93058507  0.31177262  0.95156394     0.30400
H1794       H  0.90139131  0.30830280  0.83539315     0.38200
H1795       H  0.94148038  0.33431211  0.83783119     0.33700
C1796       C  0.57989405  0.04610829  0.94959474    -0.20000
C1797       C  0.60702329  0.04848932  0.96272864     0.36200
C1798       C  0.63882582  0.06671012  0.95316462    -0.26000
C1799       C  0.64366386  0.08238762  0.93074082     0.02600
C1800       C  0.61668536  0.08196047  0.91853210     0.27400
C1801       C  0.58502740  0.06339864  0.92792011    -0.25100
N1802       N  0.60186306  0.03066222  0.98493360    -0.82500
H1803       H  0.65957196  0.06702172  0.96249210     0.13200
C1804       C  0.67569522  0.09485501  0.91844358     0.02600
N1805       N  0.62149089  0.09906946  0.89602478    -0.81100
H1806       H  0.56407737  0.06052806  0.91749061     0.18100
C1807       C  0.67675363  0.07869265  0.89781712    -0.25900
C1808       C  0.70557807  0.09017621  0.88443474     0.36100
C1809       C  0.73417642  0.11883140  0.89169405    -0.19900
C1810       C  0.73357628  0.13412034  0.91303807    -0.25200
C1811       C  0.70447658  0.12248323  0.92643715     0.27500
H1812       H  0.65472939  0.05702919  0.89203166     0.13200
N1813       N  0.70586959  0.07276470  0.86348602    -0.82500
H1814       H  0.75545593  0.15595328  0.91875778     0.18100
N1815       N  0.70380019  0.13904300  0.94770995    -0.81100
H1816       H  0.68280225  0.05245610  0.86051081     0.33700
H1817       H  0.72204939  0.06321252  0.86670511     0.38200
H1818       H  0.72696508  0.15893902  0.95114849     0.33700
H1819       H  0.68801418  0.14909815  0.94459990     0.30400
H1820       H  0.59915597  0.09607473  0.88921839     0.33700
H1821       H  0.63602268  0.12436558  0.89913666     0.30400
H1822       H  0.59190656  0.04069217  0.99683104     0.38200
H1823       H  0.62425106  0.03451311  0.99222163     0.33700
C1824       C  0.97538290  0.03638523  0.94404856    -0.20000
C1825       C  0.99234628  0.06915404  0.93522045     0.36200
C1826       C  0.97463259  0.08471284  0.92608773    -0.26000
C1827       C  0.94020620  0.06796823  0.92565615     0.02600
C1828       C  0.92319664  0.03598405  0.93584148     0.27400
C1829       C  0.94093707  0.02053662  0.94494569    -0.25100
N1830       N  0.52699167  0.08545140  0.93401477    -0.82500
H1831       H  0.98778322  0.10937435  0.91831949     0.13200
C1832       C  0.92218976  0.08280690  0.91267398     0.02600
N1833       N  0.88794848  0.01906716  0.93631359    -0.81100
H1834       H  0.92779563  0.99555149  0.95218115     0.18100
C1835       C  0.90565639  0.06804071  0.89159447    -0.25900
C1836       C  0.88875948  0.08139559  0.87827174     0.36100
C1837       C  0.88870454  0.11053420  0.88609685    -0.19900
C1838       C  0.90459325  0.12474734  0.90762379    -0.25200
C1839       C  0.92138158  0.11116041  0.92096897     0.27500
H1840       H  0.90611451  0.04600741  0.88546706     0.13200
N1841       N  0.87150852  0.06528953  0.85694162    -0.82500
H1842       H  0.90451653  0.14692662  0.91380930     0.18100
N1843       N  0.93770861  0.12603302  0.94283620    -0.81100
H1844       H  0.87439230  0.04449074  0.85357232     0.33700
H1845       H  0.84649683  0.05659750  0.85992591     0.38200
H1846       H  0.93489202  0.14680442  0.94645379     0.33700
H1847       H  0.92601402  0.10886855  0.95660338     0.30400
H1848       H  0.87916888  0.99560551  0.94425436     0.33700
H1849       H  0.88056776  0.03255542  0.94717861     0.30400
H1850       H  0.53548146  0.10719003  0.94376889     0.38200
H1851       H  0.53387386  0.09217956  0.91626280     0.33700
C1852       C  0.77506055  0.22191266  0.78434515    -0.20000
C1853       C  0.74621258  0.22071827  0.79347030     0.36200
C1854       C  0.73048024  0.23564463  0.78043955    -0.26000
C1855       C  0.74228200  0.25085351  0.75816832     0.02600
C1856       C  0.77067345  0.25128863  0.74881363     0.27400
C1857       C  0.78706329  0.23736352  0.76220108    -0.25100
N1858       N  0.73380579  0.20574356  0.81638988    -0.82500
H1859       H  0.70913790  0.23588066  0.78788575     0.13200
C1860       C  0.72595495  0.26812788  0.74570007     0.02600
N1861       N  0.78265088  0.26573259  0.72570573    -0.81100
H1862       H  0.80900230  0.23799292  0.75511649     0.18100
C1863       C  0.74497066  0.30142163  0.73882067    -0.25900
C1864       C  0.73065702  0.31944317  0.72826816     0.36100
C1865       C  0.69617546  0.30433710  0.72546964    -0.19900
C1866       C  0.67719672  0.27070033  0.73154803    -0.25200
C1867       C  0.69173416  0.25236515  0.74151823     0.27500
H1868       H  0.77119079  0.31362833  0.74200312     0.13200
N1869       N  0.75110983  0.35300752  0.72027571    -0.82500
H1870       H  0.65087394  0.25885961  0.72905043     0.18100
N1871       N  0.67188790  0.21790846  0.74756401    -0.81100
H1872       H  0.77583288  0.36038233  0.72371051     0.33700
H1873       H  0.74860717  0.35363762  0.70178138     0.38200
H1874       H  0.64723894  0.21014541  0.74351231     0.33700
H1875       H  0.67931350  0.20437325  0.73679130     0.30400
H1876       H  0.80376991  0.26416153  0.72147004     0.33700
H1877       H  0.76477070  0.25161366  0.71319079     0.30400
H1878       H  0.72424980  0.18016129  0.81472573     0.38200
H1879       H  0.71408803  0.20941433  0.82128810     0.33700
C1880       C  0.59074580  0.29093285  0.71664048    -0.20000
C1881       C  0.56378446  0.29238719  0.70599690     0.36200
C1882       C  0.53235220  0.27343378  0.71575042    -0.26000
C1883       C  0.52756673  0.25354410  0.73618295     0.02600
C1884       C  0.55430802  0.25045799  0.74585207     0.27400
C1885       C  0.58567234  0.26906458  0.73580829    -0.25100
N1886       N  0.56885274  0.31449012  0.68611934    -0.82500
H1887       H  0.51174164  0.27541849  0.70814693     0.13200
C1888       C  0.49542545  0.23901770  0.74865664     0.02600
N1889       N  0.54989302  0.22996088  0.76661138    -0.81100
H1890       H  0.60661289  0.26851783  0.74414371     0.18100
C1891       C  0.97734662  0.20468340  0.75208737    -0.25900
C1892       C  0.94764132  0.19063599  0.76488121     0.36100
C1893       C  0.93636888  0.21157017  0.77487903    -0.19900
C1894       C  0.95453457  0.24593134  0.77068361    -0.25200
C1895       C  0.98401873  0.25983930  0.75779963     0.27500
H1896       H  0.98620221  0.18876455  0.74471622     0.13200
N1897       N  0.92897435  0.15525028  0.76759319    -0.82500
H1898       H  0.94625367  0.26228648  0.77808775     0.18100
N1899       N  0.50131360  0.29493285  0.75377840    -0.81100
H1900       H  0.94097971  0.14363676  0.75957817     0.33700
H1901       H  0.90690903  0.14765123  0.75831737     0.38200
H1902       H  0.99049644  0.30696841  0.76216926     0.33700
H1903       H  0.52356430  0.30354399  0.76296906     0.30400
H1904       H  0.57194720  0.23035746  0.77141078     0.33700
H1905       H  0.54353201  0.24027648  0.78073895     0.30400
H1906       H  0.57763011  0.30646502  0.67197605     0.38200
H1907       H  0.54660078  0.31296675  0.68048069     0.33700
C1908       C  0.77331615  0.06286252  0.78190985    -0.20000
C1909       C  0.74631107  0.05821156  0.76742521     0.36200
C1910       C  0.72970419  0.02896425  0.75435996    -0.26000
C1911       C  0.73752441  0.50326517  0.75552378     0.02600
C1912       C  0.76611200  0.00879336  0.77020987     0.27400
C1913       C  0.78315646  0.03828141  0.78282856    -0.25100
N1914       N  0.73599598  0.08320339  0.76583822    -0.82500
H1915       H  0.70927479  0.02548545  0.74300455     0.13200
C1916       C  0.71873313  0.47188180  0.74243942     0.02600
N1917       N  0.77631532  0.48421695  0.77036333    -0.81100
H1918       H  0.80365093  0.04160916  0.79405966     0.18100
C1919       C  0.73531230  0.46194394  0.72658462    -0.25900
C1920       C  0.71981900  0.43051485  0.71647347     0.36100
C1921       C  0.68640368  0.40843813  0.72150307    -0.19900
C1922       C  0.66918275  0.41970903  0.73598842    -0.25200
C1923       C  0.68510943  0.45090601  0.74677175     0.27500
H1924       H  0.76099101  0.47823130  0.72277639     0.13200
N1925       N  0.73863082  0.42061951  0.70178545    -0.82500
H1926       H  0.64375183  0.40404714  0.74019687     0.18100
N1927       N  0.66755001  0.46077618  0.76287079    -0.81100
H1928       H  0.74789345  0.43742537  0.68749860     0.33700
H1929       H  0.75848196  0.42220175  0.71179759     0.38200
H1930       H  0.64295001  0.44269278  0.76403793     0.33700
H1931       H  0.67770165  0.46245557  0.77984212     0.30400
H1932       H  0.79749206  0.49234502  0.78081905     0.33700
H1933       H  0.75799227  0.46342547  0.77907808     0.30400
H1934       H  0.75488536  0.10417760  0.75771141     0.38200
H1935       H  0.71544130  0.07559096  0.75476806     0.33700
O1936       O  0.77566408  0.67856555  0.80624015    -0.78600
C1937       C  0.79014004  0.59260164  0.79561880     0.82400
O1938       O  0.79252371  0.64903219  0.88468935    -0.79800
O1939       O  0.87181874  0.62409720  0.84702230    -0.81200
O1940       O  0.89377481  0.71895246  0.79465212    -0.81000
O1941       O  0.82290956  0.72358134  0.79837221    -0.79700
Zn1942     Zn  0.78752471  0.64721153  0.82397099     1.55700
O1943       O  0.89350354  0.67044583  0.79716133    -0.81100
Cd1944     Cd  0.85605352  0.71324725  0.81723738     1.59700
Cd1945     Cd  0.83839122  0.67037192  0.86800165     1.59600
O1946       O  0.87656756  0.74787702  0.84372621    -0.81000
O1947       O  0.83366990  0.66806045  0.83227458    -1.91600
Cd1948     Cd  0.85433718  0.64204604  0.81954009     1.59900
O1949       O  0.86477237  0.71958330  0.87805421    -0.81000
O1950       O  0.82027652  0.60233943  0.80043616    -0.79700
C1951       C  0.76380637  0.63401730  0.87562677     0.82900
C1952       C  0.79172169  0.70726416  0.79683706     0.82500
O1953       O  0.77521359  0.60768493  0.80335924    -0.78600
C1954       C  0.90567313  0.70001632  0.78898283     0.83300
O1955       O  0.75952326  0.63169924  0.85317397    -0.78700
C1956       C  0.87806558  0.74699323  0.86638508     0.83500
C1957       C  0.87389283  0.62751722  0.86955287     0.83800
O1958       O  0.86309485  0.64483473  0.88006094    -0.78700
C1959       C  0.67189178  0.87389085  0.71281185     0.86300
C1960       C  0.68903635  0.85583333  0.72469141    -0.53900
C1961       C  0.67882738  0.82441154  0.71699236     0.09300
C1962       C  0.65062680  0.81289274  0.69866360     0.20200
C1963       C  0.67521349  0.87083775  0.68596256    -0.54600
C1964       C  0.66448134  0.83917540  0.67857364     0.09400
C1965       C  0.63525968  0.85088583  0.71775773    -0.54200
C1966       C  0.62422501  0.81909134  0.71052514     0.09900
H1967       H  0.70808573  0.86735585  0.73808723     0.14500
H1968       H  0.64171476  0.78715664  0.69250532     0.00200
H1969       H  0.68687305  0.89209727  0.67395796     0.14800
H1970       H  0.61889633  0.85789154  0.72654930     0.14500
C1971       C  0.99784964  0.96621599  0.95139796     0.86300
C1972       C  0.53463838  0.98901007  0.94657872    -0.53900
C1973       C  0.54737732  0.52087213  0.95570781     0.09300
C1974       C  0.52092232  0.52665778  0.96799356     0.20200
C1975       C  0.99438952  0.96694588  0.97842383    -0.54600
C1976       C  0.50590237  0.49869400  0.98694169     0.09400
C1977       C  0.98130377  0.98575502  0.94104352    -0.54200
C1978       C  0.99309853  0.51756011  0.94879273     0.09900
H1979       H  0.55049955  0.98260500  0.93648793     0.14500
H1980       H  0.52994204  0.55186297  0.97507331     0.00200
H1981       H  0.98235738  0.94462020  0.98939263     0.14800
H1982       H  0.96160669  0.97551010  0.92797891     0.14500
O1983       O  0.94353507  0.99490565  0.53569490    -0.78600
C1984       C  0.54009905  0.57899326  0.53676529     0.82400
O1985       O  0.97661268  0.52764069  0.45260028    -0.79800
O1986       O  0.58147912  0.53766999  0.48431825    -0.81200
O1987       O  0.51303670  0.94431128  0.53140701    -0.81000
O1988       O  0.94301308  0.94624431  0.53463043    -0.79700
Zn1989     Zn  0.97868606  0.52409323  0.51305621     1.55700
O1990       O  0.55821798  0.99275521  0.53456493    -0.81100
Cd1991     Cd  0.98146322  0.95513349  0.51252867     1.59700
Cd1992     Cd  0.00392225  0.00358222  0.46549286     1.59600
O1993       O  0.96426390  0.92315821  0.48418863    -0.81000
O1994       O  0.00355802  0.00221471  0.50126533    -1.91600
Cd1995     Cd  0.54904015  0.52411349  0.51247899     1.59900
O1996       O  0.98002640  0.95593750  0.45193404    -0.81000
O1997       O  0.55819790  0.56610006  0.53139535    -0.79700
C1998       C  0.96043363  0.53953794  0.46322372     0.82900
C1999       C  0.93161118  0.96463020  0.54230684     0.82500
O2000       O  0.51000659  0.56568478  0.53050418    -0.78600
C2001       C  0.54198950  0.96184997  0.53934812     0.83300
O2002       O  0.95899197  0.53907584  0.48594138    -0.78700
C2003       C  0.96598615  0.92716174  0.46162971     0.83500
C2004       C  0.57889828  0.53749129  0.46168822     0.83800
O2005       O  0.55112650  0.52690431  0.45128586    -0.81100
C2006       C  0.84916328  0.70969867  0.37668670     0.86300
C2007       C  0.86472510  0.68879511  0.38660935    -0.53900
C2008       C  0.84899466  0.65629042  0.38041152     0.09300
C2009       C  0.81807094  0.64692074  0.36508886     0.20200
C2010       C  0.84640965  0.70381197  0.34985176    -0.54600
C2011       C  0.83062073  0.67113533  0.34362568     0.09400
C2012       C  0.81389609  0.69088624  0.38602610    -0.54200
C2013       C  0.79739425  0.65824869  0.37990406     0.09900
H2014       H  0.88594095  0.69835334  0.39832985     0.14500
H2015       H  0.80514067  0.62041015  0.36010707     0.00200
H2016       H  0.85871652  0.72376984  0.33690718     0.14800
H2017       H  0.80320764  0.70174422  0.39767089     0.14500
C2018       C  0.71039735  0.84392233  0.62163889     0.86300
C2019       C  0.69287410  0.86150671  0.60977266    -0.53900
C2020       C  0.66070971  0.84900462  0.61571572     0.09300
C2021       C  0.64862762  0.81981767  0.63366909     0.20200
C2022       C  0.70496062  0.84497753  0.64837467    -0.54600
C2023       C  0.67293349  0.83298092  0.65466543     0.09400
C2024       C  0.68871245  0.80708105  0.61543570    -0.54200
C2025       C  0.65638505  0.79445639  0.62160261     0.09900
H2026       H  0.70531351  0.88267856  0.59780533     0.14500
H2027       H  0.62259090  0.80984687  0.63897248     0.00200
H2028       H  0.72490832  0.85612692  0.66114609     0.14800
H2029       H  0.69718684  0.79178819  0.60667988     0.14500
O2030       O  0.67292040  0.76865869  0.19674611    -0.78600
C2031       C  0.58906289  0.78411707  0.20362733     0.82400
O2032       O  0.64181569  0.78708503  0.11549742    -0.79800
O2033       O  0.62318769  0.86975741  0.15431766    -0.81200
O2034       O  0.71937982  0.88847316  0.20071524    -0.81000
O2035       O  0.71975575  0.81538649  0.20006640    -0.79700
Zn2036     Zn  0.64380559  0.78063391  0.17607492     1.55700
O2037       O  0.67111420  0.88785743  0.20293765    -0.81100
Cd2038     Cd  0.71051833  0.84835979  0.17977560     1.59700
Cd2039     Cd  0.66505960  0.83294488  0.13164107     1.59600
O2040       O  0.74343426  0.86441763  0.15190080    -0.81000
O2041       O  0.66464328  0.82734100  0.16718172    -1.91600
Cd2042     Cd  0.64047851  0.84947863  0.18087297     1.59900
O2043       O  0.71280020  0.85673137  0.11926687    -0.81000
O2044       O  0.60069355  0.81524270  0.20026233    -0.79700
C2045       C  0.63165518  0.75803327  0.12425282     0.82900
C2046       C  0.70209176  0.78461906  0.20474847     0.82500
O2047       O  0.60282191  0.76841359  0.19487433    -0.78600
C2048       C  0.70148485  0.90048624  0.20834962     0.83300
O2049       O  0.63207332  0.75273695  0.14659199    -0.78700
C2050       C  0.74056880  0.86664216  0.12942799     0.83500
C2051       C  0.62653164  0.87252959  0.13172639     0.83800
O2052       O  0.64221917  0.86045839  0.12068310    -0.81100
C2053       C  0.96047578  0.98324109  0.04668422     0.86300
C2054       C  0.97778979  0.52165450  0.05233008    -0.53900
C2055       C  0.51054927  0.53768507  0.04665922     0.09300
C2056       C  0.52150316  0.51609341  0.03234954     0.20200
C2057       C  0.96472080  0.98449067  0.01946780    -0.54600
C2058       C  0.49698015  0.50264618  0.01142198     0.09400
C2059       C  0.98271268  0.96918479  0.05590387    -0.54200
C2060       C  0.51453803  0.98627315  0.04860272     0.09900
H2061       H  0.96553467  0.53268976  0.06221925     0.14500
H2062       H  0.54759245  0.52861050  0.02684346     0.00200
H2063       H  0.94517072  0.97131115  0.00682254     0.14800
H2064       H  0.97387284  0.94704909  0.06709965     0.14500
C2065       C  0.86941042  0.66579057  0.28522618     0.86300
C2066       C  0.84981541  0.68076198  0.27253834    -0.53900
C2067       C  0.81826962  0.66857168  0.28019280     0.09300
C2068       C  0.80934515  0.64322014  0.30089164     0.20200
C2069       C  0.86727220  0.67281455  0.31163011    -0.54600
C2070       C  0.83610534  0.66139694  0.31979140     0.09400
C2071       C  0.84817132  0.62823173  0.28321191    -0.54200
C2072       C  0.81668349  0.61617173  0.29107453     0.09900
H2073       H  0.86062840  0.70038630  0.25919974     0.14500
H2074       H  0.78411678  0.63394760  0.30775383     0.00200
H2075       H  0.88796484  0.68726811  0.32307199     0.14800
H2076       H  0.85696771  0.61261077  0.27513064     0.14500
C2077       C  0.92596855  0.96416003  0.05734346    -0.20000
C2078       C  0.92215394  0.96231135  0.08245176     0.36200
C2079       C  0.89102416  0.94439106  0.09258939    -0.26000
C2080       C  0.86306600  0.92796141  0.07836599     0.02600
C2081       C  0.86626922  0.92964490  0.05339962     0.27400
C2082       C  0.89755508  0.94780733  0.04312200    -0.25100
N2083       N  0.95002296  0.97871539  0.09785015    -0.82500
H2084       H  0.88865088  0.94356848  0.11180210     0.13200
C2085       C  0.83058596  0.91008531  0.09005787     0.02600
N2086       N  0.83770809  0.91268229  0.03859388    -0.81100
H2087       H  0.89909050  0.94872124  0.02399832     0.18100
C2088       C  0.80671396  0.91993092  0.08510433    -0.25900
C2089       C  0.77656155  0.90533954  0.09715210     0.36100
C2090       C  0.77057536  0.88087579  0.11484383    -0.19900
C2091       C  0.79427679  0.87071719  0.11955008    -0.25200
C2092       C  0.82406866  0.88476240  0.10711067     0.27500
H2093       H  0.81197635  0.93962748  0.07216687     0.13200
N2094       N  0.75285759  0.91654672  0.09239026    -0.82500
H2095       H  0.78944864  0.85167665  0.13297320     0.18100
N2096       N  0.84784079  0.87361999  0.11179027    -0.81100
H2097       H  0.76211896  0.93628217  0.08011904     0.33700
H2098       H  0.73266612  0.89724962  0.08413499     0.38200
H2099       H  0.83930904  0.85492202  0.12488043     0.33700
H2100       H  0.85041865  0.86298244  0.09620561     0.30400
H2101       H  0.84409425  0.91644589  0.02058147     0.33700
H2102       H  0.82802107  0.88729116  0.04205568     0.30400
H2103       H  0.94644089  0.99537311  0.10824982     0.38200
H2104       H  0.95107168  0.96093057  0.10922344     0.33700
C2105       C  0.61906326  0.72939858  0.10827099    -0.20000
C2106       C  0.59466380  0.72392275  0.09103240     0.36200
C2107       C  0.58066573  0.69417924  0.07826966    -0.26000
C2108       C  0.59094107  0.67026314  0.08232918     0.02600
C2109       C  0.61692521  0.67682252  0.09829292     0.27400
C2110       C  0.63051409  0.70623161  0.11131281    -0.25100
N2111       N  0.58317551  0.74777888  0.08736673    -0.82500
H2112       H  0.56061072  0.68887181  0.06598791     0.13200
C2113       C  0.57097882  0.63659089  0.07287217     0.02600
N2114       N  0.62903377  0.65336756  0.10143623    -0.81100
H2115       H  0.64973802  0.71087363  0.12422694     0.18100
C2116       C  0.57707724  0.62851350  0.05019994    -0.25900
C2117       C  0.55770356  0.59650606  0.04102114     0.36100
C2118       C  0.53252861  0.57198627  0.05519416    -0.19900
C2119       C  0.52708458  0.58040989  0.07806092    -0.25200
C2120       C  0.54551537  0.61248822  0.08680378     0.27500
H2121       H  0.59648487  0.64741058  0.03950133     0.13200
N2122       N  0.56260086  0.58937592  0.01709966    -0.82500
H2123       H  0.00703662  0.56226664  0.08872180     0.18100
N2124       N  0.53799346  0.62096284  0.10960538    -0.81100
H2125       H  0.58235024  0.60987020  0.00923346     0.33700
H2126       H  0.54172623  0.58551801  0.00741306     0.38200
H2127       H  0.01623192  0.60049529  0.11709939     0.33700
H2128       H  0.55783412  0.62638783  0.12100303     0.30400
H2129       H  0.64863876  0.66226443  0.11349146     0.33700
H2130       H  0.61042279  0.63175005  0.10906796     0.30400
H2131       H  0.57174623  0.74871813  0.10305300     0.38200
H2132       H  0.56526400  0.74001318  0.07399921     0.33700
C2133       C  0.61230658  0.89065934  0.11782658    -0.20000
C2134       C  0.58336455  0.89106564  0.12508272     0.36200
C2135       C  0.57126986  0.90902260  0.11147226    -0.26000
C2136       C  0.58725550  0.92637300  0.09072998     0.02600
C2137       C  0.61594622  0.92594092  0.08333045     0.27400
C2138       C  0.62814293  0.90801968  0.09690695    -0.25100
N2139       N  0.56596417  0.87274524  0.14591449    -0.82500
H2140       H  0.54899311  0.90921817  0.11688284     0.13200
C2141       C  0.57266624  0.94381037  0.07665206     0.02600
N2142       N  0.63275298  0.94401158  0.06225798    -0.81100
H2143       H  0.65037592  0.90793374  0.09126879     0.18100
C2144       C  0.58153180  0.97688365  0.08165807    -0.25900
C2145       C  0.56448845  0.99245077  0.07117812     0.36100
C2146       C  0.53817284  0.97439678  0.05552495    -0.19900
C2147       C  0.53063966  0.94197929  0.04954090    -0.25200
C2148       C  0.54760365  0.92647521  0.05997062     0.27500
H2149       H  0.60079860  0.99002058  0.09454969     0.13200
N2150       N  0.57555638  0.52545655  0.07149631    -0.82500
H2151       H  0.51032534  0.92819206  0.03754059     0.18100
N2152       N  0.53836801  0.89262387  0.05468354    -0.81100
H2153       H  0.57672810  0.52955459  0.08981294     0.33700
H2154       H  0.59931531  0.53854828  0.06467337     0.38200
H2155       H  0.51895318  0.88315126  0.04246877     0.33700
H2156       H  0.55825749  0.89236240  0.04631902     0.30400
H2157       H  0.65374787  0.94155405  0.05943686     0.33700
H2158       H  0.61726946  0.93322133  0.04769851     0.30400
H2159       H  0.55717338  0.84759420  0.14254082     0.38200
H2160       H  0.54539129  0.87590567  0.14885470     0.33700
C2161       C  0.79600351  0.68078158  0.27035938    -0.20000
C2162       C  0.79005634  0.68124335  0.24557441     0.36200
C2163       C  0.77205342  0.69650975  0.23699062    -0.26000
C2164       C  0.75982694  0.71159482  0.25245395     0.02600
C2165       C  0.76389664  0.70949130  0.27724803     0.27400
C2166       C  0.78174042  0.69377809  0.28598848    -0.25100
N2167       N  0.80151883  0.66611366  0.22865948    -0.82500
H2168       H  0.76838846  0.69751387  0.21795301     0.13200
C2169       C  0.74519222  0.73158811  0.24204837     0.02600
N2170       N  0.75079470  0.72417002  0.29333973    -0.81100
H2171       H  0.78586494  0.69307038  0.30497997     0.18100
C2172       C  0.71147879  0.72072457  0.24415537    -0.25900
C2173       C  0.69681878  0.73809617  0.23278049     0.36100
C2174       C  0.71640142  0.76687551  0.21897604    -0.19900
C2175       C  0.75036850  0.77828902  0.21778186    -0.25200
C2176       C  0.76489933  0.76091457  0.22908233     0.27500
H2177       H  0.69652463  0.69831135  0.25432634     0.13200
N2178       N  0.66222338  0.72661531  0.23521366    -0.82500
H2179       H  0.76558310  0.80035613  0.20736153     0.18100
N2180       N  0.79959855  0.77258432  0.22713725    -0.81100
H2181       H  0.65142411  0.70506294  0.24575284     0.33700
H2182       H  0.65935887  0.74470423  0.24436213     0.38200
H2183       H  0.81061439  0.79431025  0.21679916     0.33700
H2184       H  0.80970163  0.77877756  0.24421855     0.30400
H2185       H  0.75583834  0.72036153  0.31098271     0.33700
H2186       H  0.76305308  0.74976354  0.29022712     0.30400
H2187       H  0.79402339  0.64165022  0.23402857     0.38200
H2188       H  0.82704111  0.67894664  0.22800853     0.33700
C2189       C  0.71627122  0.92997881  0.22393872    -0.20000
C2190       C  0.75031821  0.95236468  0.22372274     0.36200
C2191       C  0.76296918  0.97990051  0.23871204    -0.26000
C2192       C  0.74331720  0.48504193  0.25492344     0.02600
C2193       C  0.70867421  0.96355665  0.25425660     0.27400
C2194       C  0.69586504  0.93602194  0.23917542    -0.25100
N2195       N  0.77190547  0.94764643  0.20793358    -0.82500
H2196       H  0.79003345  0.49610908  0.24010502     0.13200
C2197       C  0.75758529  0.51627530  0.26865208     0.02600
N2198       N  0.68744040  0.96888939  0.26997000    -0.81100
H2199       H  0.66979654  0.91896657  0.23954410     0.18100
C2200       C  0.74733376  0.53998468  0.26349043    -0.25900
C2201       C  0.76422558  0.57217755  0.27269491     0.36100
C2202       C  0.79225477  0.58088644  0.28712056    -0.19900
C2203       C  0.80085415  0.55631707  0.29375134    -0.25200
C2204       C  0.78372638  0.52407733  0.28475330     0.27500
H2205       H  0.72715941  0.53389035  0.25116908     0.13200
N2206       N  0.75448389  0.59656504  0.26588065    -0.82500
H2207       H  0.82218830  0.56288534  0.30498077     0.18100
N2208       N  0.79353742  0.49956857  0.29111572    -0.81100
H2209       H  0.73545169  0.58697684  0.25336857     0.33700
H2210       H  0.74470804  0.60158637  0.28094579     0.38200
H2211       H  0.81337827  0.50932785  0.30295890     0.33700
H2212       H  0.77815250  0.98090267  0.29674612     0.30400
H2213       H  0.66315598  0.95034339  0.26797917     0.33700
H2214       H  0.69440719  0.96681484  0.28743017     0.30400
H2215       H  0.76550983  0.95072959  0.19050454     0.38200
H2216       H  0.79620329  0.96591478  0.21040759     0.33700
C2217       C  0.55852847  0.76537037  0.21770036    -0.20000
C2218       C  0.54622622  0.78133490  0.23272186     0.36200
C2219       C  0.51622487  0.76246203  0.24441924    -0.26000
C2220       C  0.99848842  0.72698610  0.24071981     0.02600
C2221       C  0.01070292  0.71154654  0.22535902     0.27400
C2222       C  0.54102070  0.73066265  0.21571984    -0.25100
N2223       N  0.56414776  0.81651678  0.23620856    -0.82500
H2224       H  0.50632272  0.77473128  0.25541214     0.13200
C2225       C  0.96634740  0.70806448  0.25273208     0.02600
N2226       N  0.99274513  0.67638542  0.22181063    -0.81100
H2227       H  0.55029054  0.71809627  0.20445721     0.18100
C2228       C  0.93798207  0.69054558  0.23904187    -0.25900
C2229       C  0.90687943  0.67546119  0.24958821     0.36100
C2230       C  0.90361144  0.67848162  0.27436000    -0.19900
C2231       C  0.93252058  0.69405644  0.28818003    -0.25200
C2232       C  0.96368811  0.70882607  0.27762123     0.27500
H2233       H  0.93987256  0.68940011  0.21990405     0.13200
N2234       N  0.87851379  0.65764601  0.23490763    -0.82500
H2235       H  0.93158359  0.69503048  0.30724866     0.18100
N2236       N  0.99276941  0.72486943  0.29206386    -0.81100
H2237       H  0.87842052  0.67377554  0.22154347     0.33700
H2238       H  0.88074495  0.63852834  0.22674819     0.38200
H2239       H  0.98674036  0.72356357  0.31006792     0.33700
H2240       H  0.50609680  0.71577591  0.29219795     0.30400
H2241       H  0.00500689  0.66891795  0.20987156     0.33700
H2242       H  0.99212020  0.66472261  0.23811599     0.30400
H2243       H  0.58590102  0.82151878  0.24515342     0.38200
H2244       H  0.55127438  0.82426180  0.24735821     0.33700
C2245       C  0.76441815  0.63584636  0.38985671    -0.20000
C2246       C  0.73777211  0.61460469  0.37546783     0.36200
C2247       C  0.70652915  0.59582106  0.38585911    -0.26000
C2248       C  0.70158305  0.59820372  0.41026018     0.02600
C2249       C  0.72845302  0.61926175  0.42457815     0.27400
C2250       C  0.75948292  0.63751176  0.41428287    -0.25100
N2251       N  0.74232913  0.61281142  0.35038105    -0.82500
H2252       H  0.68591793  0.57953881  0.37490790     0.13200
C2253       C  0.66838168  0.57912295  0.42099284     0.02600
N2254       N  0.72397825  0.62251103  0.44950450    -0.81100
H2255       H  0.78001404  0.65357859  0.42539462     0.18100
C2256       C  0.66433740  0.55810978  0.44057119    -0.25900
C2257       C  0.63530751  0.54393186  0.45395634     0.36100
C2258       C  0.60919423  0.55014954  0.44719782    -0.19900
C2259       C  0.61230541  0.56910981  0.42649854    -0.25200
C2260       C  0.64180980  0.58405760  0.41349496     0.27500
H2261       H  0.68454947  0.55382671  0.44600259     0.13200
N2262       N  0.63221330  0.52287906  0.47413861    -0.82500
H2263       H  0.59217237  0.57351583  0.42107707     0.18100
N2264       N  0.64522896  0.60505480  0.39323081    -0.81100
H2265       H  0.63581341  0.00424904  0.47030455     0.33700
H2266       H  0.65042966  0.03807842  0.48767061     0.38200
H2267       H  0.62338322  0.60592886  0.38998816     0.33700
H2268       H  0.66293296  0.62912032  0.39745535     0.30400
H2269       H  0.74622856  0.63874441  0.45754481     0.33700
H2270       H  0.70861331  0.63325988  0.45089710     0.30400
H2271       H  0.72031146  0.59603549  0.34234142     0.38200
H2272       H  0.74871490  0.63608381  0.34282186     0.33700
C2273       C  0.86845824  0.74659172  0.38310939    -0.20000
C2274       C  0.85336004  0.76699786  0.38559096     0.36200
C2275       C  0.87106735  0.79835604  0.39605420    -0.26000
C2276       C  0.90406423  0.81066117  0.40262656     0.02600
C2277       C  0.92046666  0.79272514  0.39667066     0.27400
C2278       C  0.90270419  0.76125416  0.38665681    -0.25100
N2279       N  0.82033649  0.75607766  0.37744908    -0.82500
H2280       H  0.85885951  0.81290874  0.39964705     0.13200
C2281       C  0.92073432  0.84119403  0.41700021     0.02600
N2282       N  0.95504009  0.80636467  0.40126103    -0.81100
H2283       H  0.91582371  0.74798368  0.38205247     0.18100
C2284       C  0.93306635  0.83906973  0.43952522    -0.25900
C2285       C  0.94854031  0.86686029  0.45414952     0.36100
C2286       C  0.95117672  0.89750126  0.44628340    -0.19900
C2287       C  0.93928449  0.89972985  0.42351789    -0.25200
C2288       C  0.92414708  0.87188303  0.40877687     0.27500
H2289       H  0.93051836  0.81545861  0.44574174     0.13200
N2290       N  0.96194248  0.86409252  0.47679600    -0.82500
H2291       H  0.94145049  0.92318306  0.41730755     0.18100
N2292       N  0.91236577  0.87463606  0.38549666    -0.81100
H2293       H  0.95763429  0.83982547  0.47995015     0.33700
H2294       H  0.98739782  0.87887175  0.47591530     0.38200
H2295       H  0.91668309  0.89886714  0.38214945     0.33700
H2296       H  0.92608567  0.86981712  0.37303915     0.30400
H2297       H  0.96344026  0.78996479  0.39605056     0.33700
H2298       H  0.96715489  0.82766569  0.39060509     0.30400
H2299       H  0.82010616  0.75343100  0.35899141     0.38200
H2300       H  0.81310184  0.77405808  0.38055075     0.33700
C2301       C  0.86191278  0.63356612  0.38833951    -0.20000
C2302       C  0.84269931  0.60425459  0.40151922     0.36200
C2303       C  0.85787934  0.58697563  0.41229251    -0.26000
C2304       C  0.89181313  0.59859729  0.41018883     0.02600
C2305       C  0.91065200  0.62702846  0.39608000     0.27400
C2306       C  0.89546734  0.64402454  0.38518439    -0.25100
N2307       N  0.80830050  0.59299269  0.40484298    -0.82500
H2308       H  0.84345615  0.56497665  0.42301731     0.13200
C2309       C  0.90787978  0.58207750  0.42382160     0.02600
N2310       N  0.94536803  0.63921082  0.39359177    -0.81100
H2311       H  0.91017374  0.66643800  0.37492293     0.18100
C2312       C  0.92388394  0.56762935  0.41155427    -0.25900
C2313       C  0.94155831  0.55402954  0.42374483     0.36100
C2314       C  0.94270934  0.55420691  0.44904322    -0.19900
C2315       C  0.92621572  0.56851617  0.46120222    -0.25200
C2316       C  0.90918359  0.58269447  0.44889127     0.27500
H2317       H  0.92306474  0.56755858  0.39226274     0.13200
N2318       N  0.95831535  0.54025486  0.41036052    -0.82500
H2319       H  0.92691543  0.56911543  0.48047421     0.18100
N2320       N  0.89368321  0.59827592  0.46173341    -0.81100
H2321       H  0.95326179  0.54030924  0.39217109     0.33700
H2322       H  0.98348472  0.55602537  0.41229649     0.38200
H2323       H  0.89679094  0.59658699  0.48008706     0.33700
H2324       H  0.90573169  0.62350453  0.45724467     0.30400
H2325       H  0.95562038  0.66027366  0.38253813     0.33700
H2326       H  0.95608841  0.64668994  0.41038972     0.30400
H2327       H  0.80607590  0.61054349  0.41514792     0.38200
H2328       H  0.79764728  0.57080082  0.41466539     0.33700
C2329       C  0.90316960  0.94997552  0.55873758    -0.20000
C2330       C  0.89655511  0.92189681  0.57318525     0.36200
C2331       C  0.86711773  0.90620087  0.58603824    -0.26000
C2332       C  0.84394650  0.91762881  0.58464808     0.02600
C2333       C  0.85142589  0.94686701  0.57142412     0.27400
C2334       C  0.88115637  0.96294627  0.55886532    -0.25100
N2335       N  0.91953565  0.90917422  0.57459501    -0.82500
H2336       H  0.86178339  0.88436422  0.59678042     0.13200
C2337       C  0.81122868  0.89754401  0.59583559     0.02600
N2338       N  0.82829441  0.95939485  0.57000784    -0.81100
H2339       H  0.88629283  0.98469701  0.54808841     0.18100
C2340       C  0.79902978  0.91244019  0.61144700    -0.25900
C2341       C  0.76707737  0.89501336  0.62044228     0.36100
C2342       C  0.74671325  0.86133582  0.61447656    -0.19900
C2343       C  0.75989729  0.84606248  0.59977835    -0.25200
C2344       C  0.79155139  0.86388401  0.59012542     0.27500
H2345       H  0.81409157  0.93815659  0.61617095     0.13200
N2346       N  0.75497538  0.91210026  0.63503114    -0.82500
H2347       H  0.74544489  0.82072196  0.59451624     0.18100
N2348       N  0.80332169  0.84819452  0.57377346    -0.81100
H2349       H  0.75640184  0.93238951  0.62529519     0.33700
H2350       H  0.77036304  0.92106693  0.64988111     0.38200
H2351       H  0.78606130  0.82333883  0.57150163     0.33700
H2352       H  0.80609298  0.85989836  0.55716391     0.30400
H2353       H  0.83766005  0.98119762  0.55974019     0.33700
H2354       H  0.80746630  0.94191284  0.56109685     0.30400
H2355       H  0.94091750  0.92720476  0.58261649     0.38200
H2356       H  0.91068437  0.88814978  0.58567270     0.33700
C2357       C  0.55414905  0.60992638  0.55092353    -0.20000
C2358       C  0.58828411  0.63175600  0.55166108     0.36200
C2359       C  0.60045873  0.65977899  0.56612256    -0.26000
C2360       C  0.57959113  0.66668477  0.58009885     0.02600
C2361       C  0.54544327  0.64549565  0.57895303     0.27400
C2362       C  0.53308910  0.61749472  0.56427524    -0.25100
N2363       N  0.61055343  0.62574318  0.53755268    -0.82500
H2364       H  0.62658667  0.67664175  0.56636243     0.13200
C2365       C  0.59452535  0.69678699  0.59518587     0.02600
N2366       N  0.52351904  0.65214215  0.59294213    -0.81100
H2367       H  0.50689095  0.60103815  0.56375053     0.18100
C2368       C  0.58460141  0.72121541  0.59241895    -0.25900
C2369       C  0.60284081  0.75271484  0.60258002     0.36100
C2370       C  0.63181155  0.75993473  0.61547524    -0.19900
C2371       C  0.63982223  0.73446305  0.62006137    -0.25200
C2372       C  0.62131852  0.70292563  0.61030344     0.27500
H2373       H  0.56387450  0.71650999  0.58100342     0.13200
N2374       N  0.59305604  0.77777765  0.59858389    -0.82500
H2375       H  0.66143506  0.73962768  0.63059540     0.18100
N2376       N  0.63029970  0.67736462  0.61496379    -0.81100
H2377       H  0.57063486  0.76805461  0.58951197     0.33700
H2378       H  0.61035102  0.79569421  0.58728415     0.38200
H2379       H  0.65076073  0.68593356  0.62621228     0.33700
H2380       H  0.61088630  0.65814911  0.62414909     0.30400
H2381       H  0.49917685  0.63428555  0.58998726     0.33700
H2382       H  0.52860275  0.64998857  0.61088056     0.30400
H2383       H  0.60549133  0.62816523  0.51964904     0.38200
H2384       H  0.63481629  0.64375699  0.54057217     0.33700
C2385       C  0.64009007  0.86290046  0.60548856    -0.20000
C2386       C  0.64180138  0.87142258  0.58100488     0.36200
C2387       C  0.62474898  0.88779316  0.57246421    -0.26000
C2388       C  0.60584893  0.89565242  0.58769320     0.02600
C2389       C  0.60287725  0.88590301  0.61189946     0.27400
C2390       C  0.61994113  0.86938299  0.62055922    -0.25100
N2391       N  0.66096105  0.86360863  0.56488871    -0.82500
H2392       H  0.62629049  0.89467056  0.55376900     0.13200
C2393       C  0.58961924  0.91426778  0.57766289     0.02600
N2394       N  0.58324279  0.89352444  0.62763295    -0.81100
H2395       H  0.61859263  0.86278840  0.63929624     0.18100
C2396       C  0.55532330  0.89949018  0.57734413    -0.25900
C2397       C  0.53921287  0.91493288  0.56557295     0.36100
C2398       C  0.55770888  0.94580646  0.55382553    -0.19900
C2399       C  0.59212004  0.96112098  0.55505899    -0.25200
C2400       C  0.60824019  0.94567278  0.56682189     0.27500
H2401       H  0.54095081  0.87538338  0.58569384     0.13200
N2402       N  0.50409882  0.89909194  0.56562411    -0.82500
H2403       H  0.60659801  0.98483918  0.54623542     0.18100
N2404       N  0.64347909  0.96144080  0.56747867    -0.81100
H2405       H  0.99402326  0.87307832  0.57393678     0.33700
H2406       H  0.99776540  0.88634701  0.54572566     0.38200
H2407       H  0.65354346  0.98429362  0.55847799     0.33700
H2408       H  0.65076494  0.96640669  0.58528121     0.30400
H2409       H  0.58357217  0.88457276  0.64483954     0.33700
H2410       H  0.59408977  0.91931157  0.62873153     0.30400
H2411       H  0.65057254  0.83785165  0.56417067     0.38200
H2412       H  0.65982087  0.87189565  0.54760948     0.33700
C2413       C  0.89581771  0.77863363  0.87961290    -0.20000
C2414       C  0.91519450  0.80950638  0.86787819     0.36200
C2415       C  0.93233456  0.83818780  0.88141715    -0.26000
C2416       C  0.93042524  0.83709955  0.90630277     0.02600
C2417       C  0.91083186  0.80671244  0.91807494     0.27400
C2418       C  0.89380625  0.77784152  0.90465193    -0.25100
N2419       N  0.91778131  0.81188544  0.84234420    -0.82500
H2420       H  0.94700741  0.86178380  0.87247214     0.13200
C2421       C  0.94865855  0.86832773  0.91959548     0.02600
N2422       N  0.90855484  0.80527626  0.94361854    -0.81100
H2423       H  0.87896903  0.75456453  0.91390089     0.18100
C2424       C  0.93138842  0.87936721  0.93385378    -0.25900
C2425       C  0.94739236  0.91012855  0.94498336     0.36100
C2426       C  0.98155287  0.93093528  0.94167552    -0.19900
C2427       C  0.99896565  0.91882552  0.92821199    -0.25200
C2428       C  0.98286658  0.88782348  0.91720186     0.27500
H2429       H  0.90507811  0.86441611  0.93582955     0.13200
N2430       N  0.92857784  0.92058834  0.95918168    -0.82500
H2431       H  0.52536377  0.93242254  0.92664721     0.18100
N2432       N  0.00106693  0.87610422  0.90336020    -0.81100
H2433       H  0.91747346  0.90308836  0.97285970     0.33700
H2434       H  0.91006133  0.92083587  0.94849268     0.38200
H2435       H  0.52645641  0.89208277  0.90472714     0.33700
H2436       H  0.99915495  0.85478776  0.91185480     0.30400
H2437       H  0.89300100  0.78109490  0.94953867     0.33700
H2438       H  0.93186546  0.81168707  0.95046063     0.30400
H2439       H  0.89516672  0.80816851  0.83561063     0.38200
H2440       H  0.93494252  0.83578544  0.83688197     0.33700
C2441       C  0.58115014  0.54682253  0.95028781    -0.20000
C2442       C  0.60824757  0.54827350  0.96294315     0.36200
C2443       C  0.63999578  0.56662025  0.95332052    -0.26000
C2444       C  0.64478486  0.58328323  0.93129816     0.02600
C2445       C  0.61787021  0.58377970  0.91965824     0.27400
C2446       C  0.58628277  0.56514097  0.92910887    -0.25100
N2447       N  0.60307905  0.52939357  0.98465481    -0.82500
H2448       H  0.66068370  0.56619367  0.96219792     0.13200
C2449       C  0.67649365  0.59555005  0.91859874     0.02600
N2450       N  0.62262043  0.60179721  0.89756015    -0.81100
H2451       H  0.56534319  0.56288390  0.91897622     0.18100
C2452       C  0.67660403  0.58018781  0.89730779    -0.25900
C2453       C  0.70509820  0.59145428  0.88359445     0.36100
C2454       C  0.73436065  0.61912021  0.89119057    -0.19900
C2455       C  0.73467850  0.63356389  0.91315360    -0.25200
C2456       C  0.70590440  0.62209352  0.92691178     0.27500
H2457       H  0.65409596  0.55928201  0.89128465     0.13200
N2458       N  0.70437015  0.57478612  0.86198135    -0.82500
H2459       H  0.75706553  0.65460663  0.91914901     0.18100
N2460       N  0.70622691  0.63771754  0.94891223    -0.81100
H2461       H  0.68090329  0.55521068  0.85883418     0.33700
H2462       H  0.71987103  0.56425547  0.86441278     0.38200
H2463       H  0.72977195  0.65685553  0.95251506     0.33700
H2464       H  0.69108119  0.64869532  0.94671834     0.30400
H2465       H  0.60032224  0.59935494  0.89112102     0.33700
H2466       H  0.63745643  0.62691231  0.90112277     0.30400
H2467       H  0.59335588  0.53898011  0.99709818     0.38200
H2468       H  0.62544228  0.53268806  0.99161856     0.33700
C2469       C  0.97594096  0.53710205  0.94256070    -0.20000
C2470       C  0.99279058  0.57036045  0.93469347     0.36200
C2471       C  0.97504585  0.58580323  0.92541291    -0.26000
C2472       C  0.94069581  0.56852615  0.92394199     0.02600
C2473       C  0.92367145  0.53607700  0.93332769     0.27400
C2474       C  0.94143603  0.52070716  0.94254417    -0.25100
N2475       N  0.52813717  0.58730808  0.93443519    -0.82500
H2476       H  0.98819414  0.61087308  0.91834378     0.13200
C2477       C  0.92291870  0.58342929  0.91072098     0.02600
N2478       N  0.88842247  0.51865376  0.93289525    -0.81100
H2479       H  0.92828961  0.49540615  0.94918581     0.18100
C2480       C  0.90824700  0.56984815  0.88887383    -0.25900
C2481       C  0.89152600  0.58324581  0.87536516     0.36100
C2482       C  0.88971879  0.61124296  0.88382306    -0.19900
C2483       C  0.90395035  0.62434641  0.90602714    -0.25200
C2484       C  0.92053738  0.61069860  0.91954047     0.27500
H2485       H  0.90996586  0.54866097  0.88232103     0.13200
N2486       N  0.87619659  0.56827279  0.85323205    -0.82500
H2487       H  0.90260260  0.64565140  0.91271331     0.18100
N2488       N  0.93501438  0.62438325  0.94214322    -0.81100
H2489       H  0.88035206  0.54835015  0.84945942     0.33700
H2490       H  0.85086762  0.55842325  0.85534928     0.38200
H2491       H  0.93120402  0.64446800  0.94608583     0.33700
H2492       H  0.92272158  0.60622747  0.95521376     0.30400
H2493       H  0.87963513  0.49490810  0.94034401     0.33700
H2494       H  0.88019232  0.53138516  0.94380530     0.30400
H2495       H  0.53577844  0.60863067  0.94455083     0.38200
H2496       H  0.53571791  0.59477624  0.91688409     0.33700
C2497       C  0.77367951  0.72176817  0.78356453    -0.20000
C2498       C  0.74495185  0.72072463  0.79277818     0.36200
C2499       C  0.72910260  0.73549440  0.77970657    -0.26000
C2500       C  0.74075106  0.75050807  0.75735629     0.02600
C2501       C  0.76909550  0.75087387  0.74795526     0.27400
C2502       C  0.78553167  0.73701113  0.76134586    -0.25100
N2503       N  0.73285319  0.70615328  0.81584703    -0.82500
H2504       H  0.70785715  0.73585880  0.78721714     0.13200
C2505       C  0.72449187  0.76790107  0.74495623     0.02600
N2506       N  0.78102546  0.76524967  0.72482261    -0.81100
H2507       H  0.80742306  0.73757272  0.75422577     0.18100
C2508       C  0.74366585  0.80111698  0.73796556    -0.25900
C2509       C  0.72947892  0.81933508  0.72757261     0.36100
C2510       C  0.69497446  0.80455542  0.72509421    -0.19900
C2511       C  0.67579381  0.77099066  0.73127247    -0.25200
C2512       C  0.69020878  0.75242001  0.74104804     0.27500
H2513       H  0.76992222  0.81313449  0.74095876     0.13200
N2514       N  0.75008439  0.85279088  0.71942856    -0.82500
H2515       H  0.64944110  0.75941248  0.72899639     0.18100
N2516       N  0.67018546  0.71802174  0.74717522    -0.81100
H2517       H  0.77480888  0.85992464  0.72262307     0.33700
H2518       H  0.74727268  0.85333929  0.70096020     0.38200
H2519       H  0.64552375  0.71048423  0.74333252     0.33700
H2520       H  0.67725482  0.70430990  0.73628488     0.30400
H2521       H  0.80215311  0.76369440  0.72058333     0.33700
H2522       H  0.76312843  0.75108941  0.71233304     0.30400
H2523       H  0.72336267  0.68054746  0.81443355     0.38200
H2524       H  0.71315780  0.70985154  0.82076233     0.33700
C2525       C  0.59028685  0.79348433  0.71584583    -0.20000
C2526       C  0.56353278  0.79529737  0.70513653     0.36200
C2527       C  0.53201409  0.77673022  0.71489466    -0.26000
C2528       C  0.52693697  0.75677841  0.73533594     0.02600
C2529       C  0.55350421  0.75354717  0.74518551     0.27400
C2530       C  0.58493146  0.77178984  0.73517219    -0.25100
N2531       N  0.56889295  0.81726392  0.68512181    -0.82500
H2532       H  0.51155582  0.77891136  0.70720156     0.13200
C2533       C  0.49458580  0.74197559  0.74754838     0.02600
N2534       N  0.54882502  0.73319983  0.76607221    -0.81100
H2535       H  0.60572324  0.77103630  0.74359729     0.18100
C2536       C  0.97619167  0.70700288  0.75008924    -0.25900
C2537       C  0.94650136  0.69262764  0.76288209     0.36100
C2538       C  0.93506654  0.71327637  0.77312665    -0.19900
C2539       C  0.95294783  0.74769480  0.76901806    -0.25200
C2540       C  0.98241338  0.76192709  0.75608999     0.27500
H2541       H  0.98527092  0.69131205  0.74264286     0.13200
N2542       N  0.92807721  0.65720073  0.76541453    -0.82500
H2543       H  0.94449418  0.76383705  0.77655082     0.18100
N2544       N  0.50051503  0.79770453  0.75365497    -0.81100
H2545       H  0.94021412  0.64583021  0.75725147     0.33700
H2546       H  0.90596755  0.64953125  0.75618391     0.38200
H2547       H  0.98844263  0.80885793  0.76060026     0.33700
H2548       H  0.52278635  0.80605273  0.76277860     0.30400
H2549       H  0.57077740  0.73348587  0.77103472     0.33700
H2550       H  0.54247038  0.74373494  0.78006251     0.30400
H2551       H  0.57749367  0.80889609  0.67107498     0.38200
H2552       H  0.54677167  0.81598958  0.67940765     0.33700
C2553       C  0.77198931  0.56255607  0.78111463    -0.20000
C2554       C  0.74380274  0.55686236  0.76766909     0.36200
C2555       C  0.72701909  0.52733019  0.75491638    -0.26000
C2556       C  0.73917342  0.00414044  0.75572980     0.02600
C2557       C  0.76566181  0.50897195  0.76891999     0.27400
C2558       C  0.78280428  0.53870383  0.78125590    -0.25100
N2559       N  0.73244594  0.58108024  0.76680665    -0.82500
H2560       H  0.70566030  0.52305363  0.74437766     0.13200
C2561       C  0.72042931  0.97302616  0.74236253     0.02600
N2562       N  0.77560671  0.98323002  0.77245550    -0.81100
H2563       H  0.80420866  0.54278537  0.79166567     0.18100
C2564       C  0.73728714  0.96238960  0.72731874    -0.25900
C2565       C  0.72149216  0.93111365  0.71697567     0.36100
C2566       C  0.68761724  0.90987781  0.72106179    -0.19900
C2567       C  0.67026064  0.92198980  0.73460082    -0.25200
C2568       C  0.68639346  0.95301759  0.74558223     0.27500
H2569       H  0.76331258  0.97799138  0.72431641     0.13200
N2570       N  0.74038224  0.92048037  0.70303524    -0.82500
H2571       H  0.64442485  0.90716166  0.73784554     0.18100
N2572       N  0.66853528  0.96368364  0.76075723    -0.81100
H2573       H  0.75084828  0.93735281  0.68891210     0.33700
H2574       H  0.75939999  0.92128709  0.71369246     0.38200
H2575       H  0.64364682  0.94627591  0.76114180     0.33700
H2576       H  0.67743014  0.96485481  0.77810450     0.30400
H2577       H  0.79598494  0.99063514  0.78368110     0.33700
H2578       H  0.75631354  0.96269086  0.78067296     0.30400
H2579       H  0.75037846  0.60221491  0.75815499     0.38200
H2580       H  0.71111662  0.57273016  0.75649793     0.33700
loop_ 
_geom_bond_atom_site_label_1 
_geom_bond_atom_site_label_2 
_geom_bond_distance 
_geom_bond_site_symmetry_2 
_ccdc_geom_bond_type 
O1           C17   1.273       .  A
O1           Zn7   2.012       .  S
C2           O18   1.273       .  A
C2           O15   1.275       .  A
C2          C618   1.482       .  S
O3           C16   1.278       .  A
O3          Cd10   2.099       .  S
O4           C22   1.275       .  A
O4          Cd13   2.066       .  S
O5           C19   1.277       .  A
O5           Cd9   2.079       .  S
O6           C17   1.276       .  A
O6           Cd9   2.082       .  S
Zn7          O18   2.013       .  S
Zn7          O20   2.004       .  S
Zn7          O12   1.938       .  S
O8           C19   1.275       .  A
O8          Cd13   2.077       .  S
Cd9          O11   2.065       .  S
Cd9          O12   1.999       .  S
Cd10         O14   2.083       .  S
Cd10         O23   2.093       .  S
Cd10         O12   2.015       .  S
O11          C21   1.275       .  A
O12         Cd13   1.997       .  S
Cd13         O15   2.063       .  S
O14          C21   1.278       .  A
C16          O20   1.273       .  A
C16         C519   1.489       .  S
C17         C562   1.480       .  S
C19         C603   1.496       .  S
C21         C478   1.493       .  S
C22          O23   1.278       .  A
C22         C547   1.489       .  S
C24          C25   1.534       .  S
C24          C30   1.539       .  S
C24          C28   1.533       .  S
C24         C631   1.533       .  S
C25          H32   1.086       .  S
C25          C26   1.364       .  D
C26          C27   1.542       .  S
C26         C575   1.491       .  S
C27          C31   1.543       .  S
C27          C29   1.540       .  S
C27          H33   1.111       .  S
C28          H34   1.087       .  S
C28          C29   1.364       .  D
C29          C88   1.473       .  S
C30          H35   1.082       .  S
C30          C31   1.366       .  D
C31         C590   1.479       .  S
C36          C42   1.534       .  S
C36          C40   1.531       .  S
C36        C1327   1.540       .  S
C36         C491   1.534       .  S
C37        C1326   1.540   1_455  S
C37          H44   1.082       .  S
C37         C683   1.366       .  D
C38          C39   1.545       .  S
C38         C682   1.365   1_545  D
C38         C506   1.480       .  S
C39          C41   1.544   1_545  S
C39        C1333   1.542   1_455  S
C39          H45   1.107       .  S
C40          H46   1.087       .  S
C40        C1976   1.365       .  D
C41        C1975   1.365   1_455  D
C41         C123   1.481   1_466  S
C42          H47   1.087       .  S
C42         C688   1.362       .  D
C43        C1329   1.542       .  S
C43         C687   1.363   1_545  D
C43         C534   1.487       .  S
O48          C64   1.276       .  A
O48        Zn699   2.033       .  S
C49          O65   1.276       .  A
C49          O62   1.276       .  A
C49         C422   1.489       .  S
O50          C63   1.276       .  A
O50        Cd702   2.080       .  S
O51          C69   1.275       .  A
O51         Cd60   2.069       .  S
O52          C66   1.272       .  A
O52       Cd1346   2.061   1_455  S
O53          C64   1.273       .  A
O53         Cd56   2.058       .  S
Zn54         O67   2.033       .  S
Zn54        O693   2.033   1_545  S
Zn54       O1355   2.029       .  S
Zn54        O704   1.952       .  S
O55          C66   1.277       .  A
O55        Cd705   2.085       .  S
Cd56         O58   2.066       .  S
Cd56       O1342   2.065       .  S
Cd56         O59   1.994       .  S
Cd57         O61   2.082       .  S
Cd57        O695   2.082       .  S
Cd57       O2005   2.089       .  S
Cd57         O59   2.011       .  S
O58          C68   1.275       .  A
O59        Zn699   1.952       .  S
O59       Cd1995   1.997       .  S
Cd60         O62   2.072       .  S
Cd60        O700   2.074   1_545  S
Cd60       O1994   1.996       .  S
O61          C68   1.276       .  A
C63          O67   1.278       .  A
C63         C379   1.499       .  S
C64         C394   1.485       .  S
O65       Zn1344   2.029   1_455  S
C66         C463   1.496       .  S
C68         C351   1.488       .  S
C69          O70   1.278       .  A
C69         C323   1.487       .  S
O70       Cd1992   2.092       .  S
C71          C72   1.542       .  S
C71          C77   1.534       .  S
C71          C75   1.527       .  S
C71         C338   1.538       .  S
C72          H79   1.085       .  S
C72          C73   1.363       .  D
C73          C74   1.542       .  S
C73         C366   1.489       .  S
C74          C78   1.547       .  S
C74          C76   1.544       .  S
C74          H80   1.110       .  S
C75          H81   1.087       .  S
C75          C76   1.368       .  D
C76         C135   1.480       .  S
C77          H82   1.085       .  S
C77          C78   1.369       .  D
C78         C310   1.488       .  S
C83          C84   1.533       .  S
C83          C89   1.545       .  S
C83          C87   1.532       .  S
C83         C407   1.537       .  S
C84          H91   1.086       .  S
C84          C85   1.363       .  D
C85          C86   1.542       .  S
C85         C450   1.488       .  S
C86          C90   1.540       .  S
C86          C88   1.539       .  S
C86          H92   1.110       .  S
C87          H93   1.086       .  S
C87          C88   1.364       .  D
C89          H94   1.081       .  S
C89          C90   1.369       .  D
C90         C435   1.487       .  S
O95         C111   1.274       .  A
O95        Zn101   2.026       .  S
C96         O112   1.274       .  A
C96         O109   1.275       .  A
C96         C282   1.488       .  S
O97         C110   1.274       .  A
O97        Cd104   2.074       .  S
O98         C116   1.277       .  A
O98        Cd107   2.089       .  S
O99         C113   1.277       .  A
O99        Cd103   2.078       .  S
O100        C111   1.276       .  A
O100       Cd103   2.082       .  S
Zn101       O112   2.012       .  S
Zn101       O114   2.014       .  S
Zn101       O106   1.944       .  S
O102        C113   1.277       .  A
O102       Cd107   2.080       .  S
Cd103       O105   2.070       .  S
Cd103       O106   1.999       .  S
Cd104       O108   2.071       .  S
Cd104       O117   2.075       .  S
Cd104       O106   2.007       .  S
O105        C115   1.276       .  A
O106       Cd107   2.003       .  S
Cd107       O109   2.070       .  S
O108        C115   1.274       .  A
C110        O114   1.275       .  A
C110        C170   1.474       .  S
C111        C239   1.490       .  S
C113        C254   1.491       .  S
C115        C155   1.477       .  S
C116        O117   1.275       .  A
C116        C198   1.490       .  S
C118        C124   1.533       .  S
C118        C122   1.540       .  S
C118        C764   1.529       .  S
C118        C142   1.536       .  S
C119        C763   1.529   1_545  S
C119        H126   1.086       .  S
C119       C1410   1.367       .  D
C120        C121   1.550       .  S
C120       C1409   1.367   1_455  D
C120        C183   1.493       .  S
C121        C123   1.542   1_455  S
C121        C770   1.541   1_545  S
C121        H127   1.109       .  S
C122        H128   1.082       .  S
C122       C2058   1.369       .  D
C123       C2057   1.370   1_545  D
C124        H129   1.087       .  S
C124       C1415   1.362       .  D
C125        C766   1.541       .  S
C125       C1414   1.361   1_455  D
C125        C211   1.483       .  S
C130        C131   1.537       .  S
C130        C136   1.532       .  S
C130        C134   1.538       .  S
C130        C295   1.535       .  S
C131        H138   1.085       .  S
C131        C132   1.365       .  D
C132        C133   1.543       .  S
C132        C226   1.486       .  S
C133        C137   1.545       .  S
C133        C135   1.541       .  S
C133        H139   1.108       .  S
C134        H140   1.081       .  S
C134        C135   1.364       .  D
C136        H141   1.087       .  S
C136        C137   1.367       .  D
C137        C267   1.487       .  S
C142        C143   1.419       .  A
C142        C147   1.412       .  A
C143        C144   1.399       .  A
C143        N148   1.434       .  S
C144        C145   1.398       .  A
C144        H149   1.084       .  S
C145        C150   1.484       .  S
C145        C146   1.409       .  A
C146        C147   1.409       .  A
C146        N151   1.438       .  S
C147        H152   1.076       .  S
N148        H168   1.045       .  S
N148        H169   1.046       .  S
C150        C153   1.403       .  A
C150        C157   1.411       .  A
N151        H166   1.045       .  S
N151        H167   1.046       .  S
C153        C154   1.407       .  A
C153        H158   1.084       .  S
C154        C155   1.413       .  A
C154        N159   1.438       .  S
C155        C156   1.403       .  A
C156        C157   1.403       .  A
C156        H160   1.084       .  S
C157        N161   1.438       .  S
N159        H162   1.046       .  S
N159        H163   1.045       .  S
N161        H164   1.046       .  S
N161        H165   1.046       .  S
C170        C171   1.412       .  A
C170        C175   1.403       .  A
C171        C172   1.408       .  A
C171        N176   1.438       .  S
C172        C173   1.403       .  A
C172        H177   1.084       .  S
C173        C178   1.477       .  S
C173        C174   1.408       .  A
C174        C175   1.403       .  A
C174        N179   1.439       .  S
C175        H180   1.084       .  S
N176        H196   1.046       .  S
N176        H197   1.046       .  S
C178        C181   1.402       .  A
C178        C185   1.406       .  A
N179        H194   1.046       .  S
N179        H195   1.044       .  S
C181        C182   1.411       .  A
C181        H186   1.084       .  S
C182        C183   1.414       .  A
C182        N187   1.435       .  S
C183        C184   1.408       .  A
C184        C185   1.399       .  A
C184       H1478   1.083       .  S
C185        N189   1.440       .  S
N187        H190   1.045       .  S
N187        H191   1.045       .  S
H188       C1474   1.083       .  S
N189        H193   1.044       .  S
N189       H1482   1.045       .  S
H192       N1479   1.046       .  S
C198        C199   1.416       .  A
C198        C203   1.408       .  A
C199        C200   1.409       .  A
C199        N204   1.438       .  S
C200        C201   1.402       .  A
C200        H205   1.084       .  S
C201        C206   1.483       .  S
C201        C202   1.407       .  A
C202        C203   1.408       .  A
C202        N207   1.438       .  S
C203        H208   1.083       .  S
N204        H224   1.046       .  S
N204        H225   1.046       .  S
C206        C209   1.404       .  A
C206        C213   1.408       .  A
N207        H222   1.046       .  S
N207        H223   1.045       .  S
C209        C210   1.411       .  A
C209        H214   1.084       .  S
C210        C211   1.410       .  A
C210        N860   1.437       .  S
C211        C212   1.404       .  A
C212        C213   1.404       .  A
C212        H216   1.084       .  S
C213        N217   1.438       .  S
N215        C855   1.437   1_545  S
N215        H218   1.045       .  S
N215        H219   1.045       .  S
N217        H220   1.046       .  S
N217        H221   1.045       .  S
C226        C227   1.417       .  A
C226        C231   1.404       .  A
C227        C228   1.397       .  A
C227        N232   1.434       .  S
C228        C229   1.401       .  A
C228        H233   1.084       .  S
C229        C234   1.487       .  S
C229        C230   1.412       .  A
C230        C231   1.411       .  A
C230        N235   1.437       .  S
C231        H236   1.084       .  S
N232        H252   1.044       .  S
N232        H253   1.042       .  S
C234        C237   1.402       .  A
C234        C241   1.410       .  A
N235        H250   1.046       .  S
N235        H251   1.045       .  S
C237        C238   1.411       .  A
C237        H242   1.084       .  S
C238        C239   1.417       .  A
C238        N243   1.438       .  S
C239        C240   1.405       .  A
C240        C241   1.405       .  A
C240        H244   1.083       .  S
C241        N245   1.438       .  S
N243        H246   1.046       .  S
N243        H247   1.046       .  S
N245        H248   1.045       .  S
N245        H249   1.046       .  S
C254        C255   1.416       .  A
C254        C259   1.408       .  A
C255        C256   1.406       .  A
C255        N260   1.438       .  S
C256        C902   1.404       .  A
C256        H906   1.084       .  S
C257        C262   1.487   1_565  S
C257        C901   1.403       .  A
C257        C903   1.409       .  A
C258        C259   1.408       .  A
C258        C902   1.409       .  A
C258        N263   1.437       .  S
C259        H264   1.083       .  S
N260        H280   1.046       .  S
N260        H281   1.046       .  S
H261        C901   1.084       .  S
C262        C265   1.403       .  A
C262        C269   1.410       .  A
N263        H278   1.046       .  S
N263        H279   1.045       .  S
C265        C266   1.407       .  A
C265        H270   1.084       .  S
C266        C267   1.412       .  A
C266        N271   1.436       .  S
C267        C268   1.405       .  A
C268        C269   1.405       .  A
C268        H272   1.084       .  S
C269        N273   1.437       .  S
N271        H274   1.046       .  S
N271        H275   1.044       .  S
N273        H276   1.046       .  S
N273        H922   1.046   1_545  S
H277        N918   1.046       .  S
C282        C283   1.416       .  A
C282        C287   1.409       .  A
C283        C284   1.403       .  A
C283        N288   1.438       .  S
C284       C1575   1.401   1_455  A
C284        H289   1.084       .  S
C285        C290   1.482       .  S
C285        C286   1.408       .  A
C285       C1574   1.402       .  A
C286       C1577   1.405       .  A
C286        N291   1.438       .  S
C287       C1576   1.405       .  A
C287        H292   1.083       .  S
N288        H308   1.046       .  S
N288        H309   1.046       .  S
C290        C293   1.399       .  A
C290        C297   1.407       .  A
N291        H306   1.046       .  S
N291        H307   1.046       .  S
C293        C294   1.401       .  A
C293        H298   1.084       .  S
C294        C295   1.418       .  A
C294        N299   1.433       .  S
C295        C296   1.412       .  A
C296        C297   1.404       .  A
C296        H300   1.075       .  S
C297        N301   1.439       .  S
N299        H302   1.046       .  S
N299        H303   1.045       .  S
N301        H304   1.045       .  S
N301       H1595   1.046       .  S
H305       N1591   1.046   1_455  S
C310        C311   1.411       .  A
C310        C315   1.403       .  A
C311        C312   1.413       .  A
C311        N316   1.437       .  S
C312        C313   1.408       .  A
C312        H317   1.083       .  S
C313        C318   1.491       .  S
C313        C314   1.412       .  A
C314        C315   1.401       .  A
C314        N319   1.439       .  S
C315        H320   1.084       .  S
N316        H336   1.045       .  S
N316        H337   1.046       .  S
C318        C321   1.403       .  A
C318        C325   1.412       .  A
N319        H334   1.046       .  S
N319        H335   1.046       .  S
C321        C322   1.405       .  A
C321        H326   1.084       .  S
C322        C323   1.416       .  A
C322        N327   1.438       .  S
C323        C324   1.406       .  A
C324        C325   1.410       .  A
C324        H328   1.084       .  S
C325        N329   1.437       .  S
N327        H975   1.046       .  S
N327        H976   1.045       .  S
N329        H332   1.046       .  S
N329        H333   1.045       .  S
H330        N972   1.046       .  S
H331        N972   1.045       .  S
C338        C339   1.420       .  A
C338        C343   1.412       .  A
C339        C340   1.410       .  A
C339        N344   1.437       .  S
C340        C341   1.402       .  A
C340        H345   1.084       .  S
C341        C346   1.484       .  S
C341        C342   1.405       .  A
C342        C343   1.402       .  A
C342        N347   1.438       .  S
C343        H348   1.081       .  S
N344        H364   1.045       .  S
N344        H365   1.046       .  S
C346        C349   1.401       .  A
C346        C353   1.408       .  A
N347        H362   1.046       .  S
N347        H363   1.046       .  S
C349        C350   1.403       .  A
C349        H354   1.084       .  S
C350        C351   1.416       .  A
C350        N355   1.438       .  S
C351        C352   1.409       .  A
C352        C353   1.409       .  A
C352        H356   1.083       .  S
C353        N357   1.437       .  S
N355        H358   1.046       .  S
N355        H359   1.046       .  S
N357        H360   1.046       .  S
N357        H361   1.046       .  S
C366        C367   1.411       .  A
C366        C371   1.405       .  A
C367        C368   1.411       .  A
C367        N372   1.436       .  S
C368        C369   1.406       .  A
C368        H373   1.084       .  S
C369        C374   1.489       .  S
C369        C370   1.410       .  A
C370        C371   1.404       .  A
C370        N375   1.438       .  S
C371        H376   1.084       .  S
N372        H392   1.045       .  S
N372        H393   1.045       .  S
C374        C377   1.401       .  A
C374        C381   1.409       .  A
N375        H390   1.046       .  S
N375        H391   1.046       .  S
C377        C378   1.408       .  A
C377        H382   1.084       .  S
C378        C379   1.421       .  A
C378        N383   1.438       .  S
C379        C380   1.410       .  A
C380        C381   1.408       .  A
C380        H384   1.083       .  S
C381        N385   1.438       .  S
N383        H386   1.046       .  S
N383        H387   1.046       .  S
N385        H388   1.046       .  S
N385        H389   1.046       .  S
C394        C395   1.416       .  A
C394        C399   1.404       .  A
C395        C396   1.405       .  A
C395        N400   1.438       .  S
C396        C397   1.403       .  A
C396        H401   1.084       .  S
C397        C402   1.489       .  S
C397        C398   1.413       .  A
C398        C399   1.406       .  A
C398        N403   1.438       .  S
C399        H404   1.083       .  S
N400        H420   1.046       .  S
N400        H421   1.046       .  S
C402        C405   1.400       .  A
C402        C409   1.411       .  A
N403        H418   1.046       .  S
N403        H419   1.045       .  S
C405        C406   1.403       .  A
C405        H410   1.084       .  S
C406        C407   1.420       .  A
C406        N411   1.433       .  S
C407        C408   1.410       .  A
C408        C409   1.405       .  A
C408        H412   1.075       .  S
C409        N413   1.439       .  S
N411        H414   1.046       .  S
N411        H415   1.045       .  S
N413        H416   1.045       .  S
N413        H417   1.046       .  S
C422        C423   1.415       .  A
C422        C427   1.408       .  A
C423        C424   1.404       .  A
C423        N428   1.438       .  S
C424        C425   1.403       .  A
C424        H429   1.084       .  S
C425        C430   1.489       .  S
C425        C426   1.410       .  A
C426        C427   1.408       .  A
C426        N431   1.437       .  S
C427        H432   1.083       .  S
N428        H448   1.046       .  S
N428        H449   1.046       .  S
C430        C433   1.404       .  A
C430        C437   1.411       .  A
N431        H446   1.046       .  S
N431        H447   1.045       .  S
C433        C434   1.408       .  A
C433        H438   1.083       .  S
C434        C435   1.413       .  A
C434        N439   1.436       .  S
C435        C436   1.404       .  A
C436        C437   1.403       .  A
C436        H440   1.084       .  S
C437        N441   1.438       .  S
N439        H442   1.046       .  S
N439        H443   1.043       .  S
N441        H444   1.046       .  S
N441        H445   1.046       .  S
C450        C451   1.417       .  A
C450        C455   1.405       .  A
C451        C452   1.402       .  A
C451        N456   1.439       .  S
C452        C453   1.398       .  A
C452        H457   1.084       .  S
C453        C458   1.479       .  S
C453        C454   1.409       .  A
C454        C455   1.409       .  A
C454        N459   1.437       .  S
C455        H460   1.084       .  S
N456        H476   1.045       .  S
N456        H477   1.045       .  S
C458        C461   1.397       .  A
C458        C465   1.406       .  A
N459        H474   1.046       .  S
N459        H475   1.046       .  S
C461        C462   1.407       .  A
C461        H466   1.084       .  S
C462        C463   1.423       .  A
C462        N467   1.438       .  S
C463        C464   1.409       .  A
C464        C465   1.406       .  A
C464        H468   1.083       .  S
C465        N469   1.438       .  S
N467       H1760   1.046   1_455  S
N467       H1761   1.046       .  S
N469        H472   1.046       .  S
N469        H473   1.045       .  S
H470       N1757   1.046       .  S
H471       N1757   1.045       .  S
C478        C479   1.421       .  A
C478        C483   1.409       .  A
C479        C480   1.405       .  A
C479        N484   1.438       .  S
C480        C481   1.400       .  A
C480        H485   1.084       .  S
C481        C486   1.484       .  S
C481        C482   1.408       .  A
C482        C483   1.406       .  A
C482        N487   1.438       .  S
C483        H488   1.083       .  S
N484        H504   1.046       .  S
N484        H505   1.046       .  S
C486        C489   1.398       .  A
C486        C493   1.409       .  A
N487        H502   1.045       .  S
N487        H503   1.046       .  S
C489        C490   1.400       .  A
C489        H494   1.084       .  S
C490        C491   1.420       .  A
C490        N495   1.434       .  S
C491        C492   1.410       .  A
C492        C493   1.407       .  A
C492       H1786   1.076       .  S
C493        N497   1.438       .  S
N495        H498   1.045       .  S
N495        H499   1.046       .  S
H496       C1782   1.076       .  S
N497        H501   1.046       .  S
N497       H1790   1.045       .  S
H500       N1787   1.045       .  S
C506        C507   1.409       .  A
C506        C511   1.400       .  A
C507        C508   1.411       .  A
C507        N512   1.437       .  S
C508        C509   1.405       .  A
C508        H513   1.083       .  S
C509        C514   1.488       .  S
C509        C510   1.411       .  A
C510        C511   1.403       .  A
C510        N515   1.438       .  S
C511        H516   1.082       .  S
N512        H532   1.045       .  S
N512        H533   1.046       .  S
C514        C517   1.401       .  A
C514        C521   1.410       .  A
N515        H530   1.046       .  S
N515        H531   1.046       .  S
C517        C518   1.403       .  A
C517        H522   1.084       .  S
C518        C519   1.415       .  A
C518        N523   1.439       .  S
C519        C520   1.408       .  A
C520        C521   1.413       .  A
C520        H524   1.083       .  S
C521        N525   1.437       .  S
N523        H526   1.046       .  S
N523        H527   1.046       .  S
N525        H528   1.046       .  S
N525        H529   1.046       .  S
C534        C535   1.408       .  A
C534        C539   1.406       .  A
C535        C536   1.407       .  A
C535       N1830   1.430       .  S
C536        C537   1.404       .  A
C536        H541   1.084       .  S
C537        C542   1.484       .  S
C537        C538   1.409       .  A
C538        C539   1.404       .  A
C538        N543   1.438       .  S
C539        H544   1.084   1_545  S
N540       C1825   1.430   1_455  S
N540        H560   1.045       .  S
N540        H561   1.046       .  S
C542        C545   1.401       .  A
C542        C549   1.408       .  A
N543        H558   1.046   1_545  S
N543        H559   1.046       .  S
C545        C546   1.405       .  A
C545        H550   1.084       .  S
C546        C547   1.417       .  A
C546        N551   1.438       .  S
C547        C548   1.408       .  A
C548        C549   1.409       .  A
C548        H552   1.083       .  S
C549        N553   1.437       .  S
N551        H554   1.046       .  S
N551        H555   1.046       .  S
N553        H556   1.046       .  S
N553        H557   1.046       .  S
C562        C563   1.412       .  A
C562        C567   1.402       .  A
C563        C564   1.406       .  A
C563        N568   1.438       .  S
C564        C565   1.404       .  A
C564        H569   1.083       .  S
C565        C570   1.492       .  S
C565        C566   1.414       .  A
C566        C567   1.407       .  A
C566        N571   1.438       .  S
C567        H572   1.084       .  S
N568        H588   1.046       .  S
N568        H589   1.046       .  S
C570        C573   1.402       .  A
C570        C577   1.414       .  A
N571        H586   1.046       .  S
N571        H587   1.046       .  S
C573        C574   1.402       .  A
C573        H578   1.083       .  S
C574        C575   1.416       .  A
C574        N579   1.438       .  S
C575        C576   1.403       .  A
C576        C577   1.410       .  A
C576        H580   1.082       .  S
C577        N581   1.437       .  S
N579        H582   1.045       .  S
N579        H583   1.045       .  S
N581        H584   1.046       .  S
N581        H585   1.045       .  S
C590        C591   1.408       .  A
C590        C595   1.401       .  A
C591        C592   1.406       .  A
C591        N596   1.438       .  S
C592        C593   1.405       .  A
C592        H597   1.084       .  S
C593        C598   1.491   1_455  S
C593        C594   1.414       .  A
C594        C595   1.409       .  A
C594        N599   1.438       .  S
C595        H600   1.083       .  S
N596        H616   1.046       .  S
N596        H617   1.045       .  S
C598       C1891   1.402       .  A
C598       C1895   1.411       .  A
N599        H614   1.046       .  S
N599        H615   1.046       .  S
C601        C602   1.410       .  A
C601       C1888   1.402       .  A
C601        H606   1.084       .  S
C602        C603   1.420       .  A
C602        N607   1.438       .  S
C603        C604   1.407       .  A
C604        C605   1.405       .  A
C604        H608   1.083       .  S
C605       C1888   1.411       .  A
C605       N1899   1.439       .  S
N607        H610   1.046       .  S
N607        H611   1.046       .  S
N609       C1895   1.438   1_455  S
N609        H613   1.046       .  S
N609       H1902   1.046   1_455  S
H612       N1899   1.046       .  S
C618        C619   1.415       .  A
C618        C623   1.403       .  A
C619        C620   1.407       .  A
C619        N624   1.438       .  S
C620       C1266   1.403       .  A
C620        H625   1.083       .  S
C621        C626   1.485       .  S
C621       C1265   1.402       .  A
C621       C1267   1.412       .  A
C622        C623   1.402       .  A
C622       C1266   1.413       .  A
C622       N1272   1.439   1_545  S
C623        H628   1.084       .  S
N624        H644   1.046       .  S
N624        H645   1.046       .  S
C626        C629   1.399       .  A
C626        C633   1.410       .  A
N627       C1267   1.439       .  S
N627        H642   1.046       .  S
N627        H643   1.046       .  S
C629        C630   1.398       .  A
C629        H634   1.084       .  S
C630        C631   1.419       .  A
C630        N635   1.434       .  S
C631        C632   1.411       .  A
C632        C633   1.407       .  A
C632        H636   1.075       .  S
C633        N637   1.438       .  S
N635        H638   1.046       .  S
N635        H639   1.046       .  S
N637        H640   1.045       .  S
N637        H641   1.046       .  S
O646        C662   1.272       .  A
O646       Zn652   2.013       .  S
C647        O663   1.273       .  A
C647        O660   1.275       .  A
C647       C1263   1.481       .  S
O648        C661   1.277       .  A
O648       Cd655   2.094       .  S
O649        C667   1.275       .  A
O649       Cd658   2.069       .  S
O650        C664   1.277       .  A
O650       Cd654   2.083       .  S
O651        C662   1.276       .  A
O651       Cd654   2.085       .  S
Zn652       O663   2.007       .  S
Zn652       O665   2.003       .  S
Zn652       O657   1.938       .  S
O653        C664   1.275       .  A
O653       Cd658   2.080       .  S
Cd654       O656   2.065       .  S
Cd654       O657   2.000       .  S
Cd655       O659   2.077       .  S
Cd655       O668   2.091       .  S
Cd655       O657   2.015       .  S
O656        C666   1.275       .  A
O657       Cd658   1.998       .  S
Cd658       O660   2.065       .  S
O659        C666   1.278       .  A
C661        O665   1.273       .  A
C661       C1164   1.487       .  S
C662       C1207   1.481       .  S
C664       C1248   1.497       .  S
C666       C1123   1.492       .  S
C667        O668   1.278       .  A
C667       C1192   1.490       .  S
C669        C670   1.536       .  S
C669        C675   1.540       .  S
C669        C673   1.533       .  S
C669       C1276   1.534       .  S
C670        H677   1.086       .  S
C670        C671   1.365       .  D
C671        C672   1.542       .  S
C671       C1220   1.492       .  S
C672        C676   1.543       .  S
C672        C674   1.538       .  S
C672        H678   1.111       .  S
C673        H679   1.087       .  S
C673        C674   1.364       .  D
C674        C733   1.472       .  S
C675        H680   1.081       .  S
C675        C676   1.366       .  D
C676       C1235   1.479       .  S
C681       C1972   1.540       .  S
C681        C687   1.535       .  S
C681        C685   1.530       .  S
C681       C1136   1.534       .  S
C682       C1971   1.540   1_455  S
C682        H689   1.081       .  S
C683        C684   1.545       .  S
C683       C1151   1.478       .  S
C684       C1978   1.543   1_455  S
C684        C686   1.542       .  S
C684        H690   1.107       .  S
C685        H691   1.087       .  S
C685       C1331   1.365       .  D
C686       C1330   1.365   1_455  D
C686        C768   1.479   1_456  S
C687        H692   1.087       .  S
C688       C1974   1.543       .  S
C688       C1179   1.489       .  S
O693        C709   1.276       .  A
C694        O710   1.276       .  A
C694        O707   1.276       .  A
C694       C1067   1.490       .  S
O695        C708   1.276       .  A
O696        C714   1.275       .  A
O696       Cd705   2.067       .  S
O697        C711   1.272       .  A
O697      Cd1991   2.064   1_455  S
O698        C709   1.273       .  A
O698       Cd701   2.054       .  S
Zn699      O2000   2.029       .  S
Zn699       O712   2.035       .  S
O700        C711   1.276       .  A
Cd701      O1987   2.062       .  S
Cd701       O703   2.063       .  S
Cd701       O704   1.994   1_565  S
Cd702       O706   2.084   1_545  S
Cd702      O1360   2.093       .  S
Cd702       O704   2.009       .  S
O703        C713   1.274       .  A
O704      Cd1350   1.994       .  S
Cd705       O707   2.076       .  S
Cd705      O1349   1.998       .  S
O706        C713   1.276       .  A
C708        O712   1.278       .  A
C708       C1024   1.500       .  S
C709       C1039   1.484       .  S
O710      Zn1989   2.026   1_455  S
C711       C1108   1.491       .  S
C713        C996   1.487       .  S
C714        O715   1.277       .  A
C714        C968   1.485       .  S
O715      Cd1347   2.088       .  S
C716        C717   1.543       .  S
C716        C722   1.533       .  S
C716        C720   1.528       .  S
C716        C983   1.539       .  S
C717        H724   1.085       .  S
C717        C718   1.363       .  D
C718        C719   1.541       .  S
C718       C1011   1.487       .  S
C719        C723   1.547       .  S
C719        C721   1.542       .  S
C719        H725   1.110       .  S
C720        H726   1.087       .  S
C720        C721   1.370       .  D
C721        C780   1.481       .  S
C722        H727   1.085       .  S
C722        C723   1.368       .  D
C723        C955   1.486       .  S
C728        C729   1.532       .  S
C728        C734   1.545       .  S
C728        C732   1.531       .  S
C728       C1052   1.535       .  S
C729        H736   1.086       .  S
C729        C730   1.363       .  D
C730        C731   1.540       .  S
C730       C1095   1.485       .  S
C731        C735   1.541       .  S
C731        C733   1.539       .  S
C731        H737   1.110       .  S
C732        H738   1.086       .  S
C732        C733   1.364       .  D
C734        H739   1.081       .  S
C734        C735   1.370       .  D
C735       C1080   1.488       .  S
O740        C756   1.273       .  A
O740       Zn746   2.025       .  S
C741        O757   1.274       .  A
C741        O754   1.276       .  A
C741        C927   1.486       .  S
O742        C755   1.275       .  A
O742       Cd749   2.078       .  S
O743        C761   1.277       .  A
O743       Cd752   2.092       .  S
O744        C758   1.276       .  A
O744       Cd748   2.073       .  S
O745        C756   1.275       .  A
O745       Cd748   2.079       .  S
Zn746       O757   2.007       .  S
Zn746       O759   2.013       .  S
Zn746       O751   1.942       .  S
O747        C758   1.277       .  A
O747       Cd752   2.081       .  S
Cd748       O750   2.068       .  S
Cd748       O751   1.999       .  S
Cd749       O753   2.068       .  S
Cd749       O762   2.076       .  S
Cd749       O751   2.007       .  S
O750        C760   1.275       .  A
O751       Cd752   2.005       .  S
Cd752       O754   2.074       .  S
O753        C760   1.274       .  A
C755        O759   1.274       .  A
C755        C815   1.475       .  S
C756        C884   1.489       .  S
C758        C899   1.491       .  S
C760        C800   1.476       .  S
C761        O762   1.275       .  A
C761        C843   1.490       .  S
C763        C769   1.534       .  S
C763        C767   1.539       .  S
C763        C787   1.534       .  S
C764        H771   1.086       .  S
C764       C2055   1.369       .  D
C765        C766   1.551       .  S
C765       C2054   1.369   1_455  D
C765        C828   1.497       .  S
C766        C768   1.544   1_455  S
C766        H772   1.108       .  S
C767        H773   1.082       .  S
C767       C1413   1.370   1_565  D
C768       C1412   1.368       .  D
C769        H774   1.087       .  S
C769       C2060   1.361       .  D
C770       C2059   1.362   1_455  D
C770        C856   1.483       .  S
C775        C776   1.536       .  S
C775        C781   1.530       .  S
C775        C779   1.537       .  S
C775        C940   1.535       .  S
C776        H783   1.085       .  S
C776        C777   1.365       .  D
C777        C778   1.542       .  S
C777        C871   1.485       .  S
C778        C782   1.547       .  S
C778        C780   1.543       .  S
C778        H784   1.110       .  S
C779        H785   1.081       .  S
C779        C780   1.364       .  D
C781        H786   1.087       .  S
C781        C782   1.368       .  D
C782        C912   1.490       .  S
C787        C788   1.419       .  A
C787        C792   1.412       .  A
C788        C789   1.398       .  A
C788        N793   1.434       .  S
C789        C790   1.398       .  A
C789        H794   1.084       .  S
C790        C795   1.483       .  S
C790        C791   1.409       .  A
C791        C792   1.409       .  A
C791        N796   1.438       .  S
C792        H797   1.076       .  S
N793        H813   1.045       .  S
N793        H814   1.046       .  S
C795        C798   1.403       .  A
C795        C802   1.411       .  A
N796        H811   1.046       .  S
N796        H812   1.046       .  S
C798        C799   1.406       .  A
C798        H803   1.084       .  S
C799        C800   1.412       .  A
C799        N804   1.438       .  S
C800        C801   1.403       .  A
C801        C802   1.403       .  A
C801        H805   1.084       .  S
C802        N806   1.438       .  S
N804        H807   1.046       .  S
N804        H808   1.045       .  S
N806        H809   1.046       .  S
N806        H810   1.046       .  S
C815        C816   1.411       .  A
C815        C820   1.403       .  A
C816        C817   1.408       .  A
C816        N821   1.438       .  S
C817        C818   1.403       .  A
C817        H822   1.084       .  S
C818        C823   1.479       .  S
C818        C819   1.408       .  A
C819        C820   1.404       .  A
C819        N824   1.438       .  S
C820        H825   1.084       .  S
N821        H841   1.046       .  S
N821        H842   1.046       .  S
C823        C826   1.402       .  A
C823        C830   1.406       .  A
N824        H839   1.046       .  S
N824        H840   1.045       .  S
C826        C827   1.412       .  A
C826        H831   1.083       .  S
C827        C828   1.415       .  A
C827        N832   1.435       .  S
C828        C829   1.409       .  A
C829        C830   1.400       .  A
C829       H2123   1.083       .  S
C830        N834   1.439       .  S
N832        H835   1.046       .  S
N832        H836   1.045       .  S
H833       C2119   1.083       .  S
N834       H2127   1.046       .  S
N834        H838   1.045       .  S
H837       N2124   1.045       .  S
C843        C844   1.415       .  A
C843        C848   1.408       .  A
C844        C845   1.408       .  A
C844        N849   1.438       .  S
C845        C846   1.402       .  A
C845        H850   1.084       .  S
C846        C851   1.484       .  S
C846        C847   1.407       .  A
C847        C848   1.409       .  A
C847        N852   1.437       .  S
C848        H853   1.084       .  S
N849        H869   1.046       .  S
N849        H870   1.046       .  S
C851        C854   1.404       .  A
C851        C858   1.408       .  A
N852        H867   1.046       .  S
N852        H868   1.045       .  S
C854        C855   1.410       .  A
C854        H859   1.083       .  S
C855        C856   1.410       .  A
C856        C857   1.404       .  A
C857        C858   1.405       .  A
C857        H861   1.084       .  S
C858        N862   1.438       .  S
N860        H863   1.045       .  S
N860        H864   1.045       .  S
N862        H865   1.046       .  S
N862        H866   1.045       .  S
C871        C872   1.417       .  A
C871        C876   1.404       .  A
C872        C873   1.397       .  A
C872        N877   1.434       .  S
C873        C874   1.401       .  A
C873        H878   1.084       .  S
C874        C879   1.485       .  S
C874        C875   1.411       .  A
C875        C876   1.410       .  A
C875        N880   1.437       .  S
C876        H881   1.084       .  S
N877        H897   1.044       .  S
N877        H898   1.042       .  S
C879        C882   1.402       .  A
C879        C886   1.410       .  A
N880        H895   1.046       .  S
N880        H896   1.045       .  S
C882        C883   1.411       .  A
C882        H887   1.084       .  S
C883        C884   1.417       .  A
C883        N888   1.438       .  S
C884        C885   1.405       .  A
C885        C886   1.405       .  A
C885        H889   1.083       .  S
C886        N890   1.438       .  S
N888        H891   1.046       .  S
N888        H892   1.046       .  S
N890        H893   1.045       .  S
N890        H894   1.046       .  S
C899        C900   1.417       .  A
C899        C904   1.408       .  A
C900        C901   1.405       .  A
C900        N905   1.438       .  S
C902        C907   1.490       .  S
C903        C904   1.408       .  A
C903        N908   1.437       .  S
C904        H909   1.083       .  S
N905        H925   1.046       .  S
N905        H926   1.046       .  S
C907        C910   1.405       .  A
C907        C914   1.411       .  A
N908        H923   1.046       .  S
N908        H924   1.046       .  S
C910        C911   1.406       .  A
C910        H915   1.084       .  S
C911        C912   1.410       .  A
C911        N916   1.431       .  S
C912        C913   1.406       .  A
C913        C914   1.405       .  A
C913        H917   1.084       .  S
C914        N918   1.438       .  S
N916        H919   1.045       .  S
N916        H920   1.045       .  S
N918        H921   1.046       .  S
C927        C928   1.415       .  A
C927        C932   1.408       .  A
C928        C929   1.404       .  A
C928        N933   1.438       .  S
C929       C2220   1.403   1_455  A
C929        H934   1.084       .  S
C930        C935   1.482       .  S
C930       C2219   1.402       .  A
C930        C931   1.408       .  A
C931       C2222   1.404       .  A
C931        N936   1.438       .  S
C932       C2221   1.404       .  A
C932        H937   1.083       .  S
N933        H953   1.046       .  S
N933        H954   1.046       .  S
C935        C938   1.399       .  A
C935        C942   1.407       .  A
N936        H951   1.046       .  S
N936        H952   1.046       .  S
C938        C939   1.401       .  A
C938        H943   1.084       .  S
C939        C940   1.418       .  A
C939        N944   1.433       .  S
C940        C941   1.412       .  A
C941        C942   1.404       .  A
C941        H945   1.075       .  S
C942        N946   1.438       .  S
N944        H947   1.046       .  S
N944        H948   1.045       .  S
N946        H949   1.045       .  S
N946       H2240   1.046       .  S
H950       N2236   1.046   1_455  S
C955        C956   1.411       .  A
C955        C960   1.403       .  A
C956        C957   1.412       .  A
C956        N961   1.437       .  S
C957        C958   1.407       .  A
C957        H962   1.083       .  S
C958        C963   1.488       .  S
C958        C959   1.411       .  A
C959        C960   1.400       .  A
C959        N964   1.439       .  S
C960        H965   1.084       .  S
N961        H981   1.045       .  S
N961        H982   1.046       .  S
C963        C966   1.402       .  A
C963        C970   1.412       .  A
N964        H979   1.046       .  S
N964        H980   1.046       .  S
C966        C967   1.404       .  A
C966        H971   1.084       .  S
C967        C968   1.415       .  A
C967        N972   1.438       .  S
C968        C969   1.406       .  A
C969        C970   1.410       .  A
C969        H973   1.084       .  S
C970        N974   1.437       .  S
N974        H977   1.046       .  S
N974        H978   1.045       .  S
C983        C984   1.420       .  A
C983        C988   1.412       .  A
C984        C985   1.410       .  A
C984        N989   1.437       .  S
C985        C986   1.402       .  A
C985        H990   1.083       .  S
C986        C991   1.486       .  S
C986        C987   1.406       .  A
C987        C988   1.403       .  A
C987        N992   1.438       .  S
C988        H993   1.081       .  S
N989       H1009   1.045       .  S
N989       H1010   1.046       .  S
C991        C994   1.402       .  A
C991        C998   1.410       .  A
N992       H1007   1.046       .  S
N992       H1008   1.046       .  S
C994        C995   1.403       .  A
C994        H999   1.084       .  S
C995        C996   1.416       .  A
C995       N1000   1.439       .  S
C996        C997   1.408       .  A
C997        C998   1.409       .  A
C997       H1001   1.083       .  S
C998       N1002   1.437       .  S
N1000      H1003   1.046       .  S
N1000      H1004   1.046       .  S
N1002      H1005   1.046       .  S
N1002      H1006   1.046       .  S
C1011      C1012   1.410       .  A
C1011      C1016   1.405       .  A
C1012      C1013   1.411       .  A
C1012      N1017   1.437       .  S
C1013      C1014   1.406       .  A
C1013      H1018   1.084       .  S
C1014      C1019   1.490       .  S
C1014      C1015   1.410       .  A
C1015      C1016   1.404       .  A
C1015      N1020   1.438       .  S
C1016      H1021   1.084       .  S
N1017      H1037   1.045       .  S
N1017      H1038   1.045       .  S
C1019      C1022   1.401       .  A
C1019      C1026   1.409       .  A
N1020      H1035   1.046       .  S
N1020      H1036   1.046       .  S
C1022      C1023   1.410       .  A
C1022      H1027   1.084       .  S
C1023      C1024   1.421       .  A
C1023      N1028   1.438       .  S
C1024      C1025   1.410       .  A
C1025      C1026   1.407       .  A
C1025      H1029   1.083       .  S
C1026      N1030   1.438       .  S
N1028      H1031   1.046       .  S
N1028      H1032   1.046       .  S
N1030      H1033   1.046       .  S
N1030      H1034   1.046       .  S
C1039      C1040   1.416       .  A
C1039      C1044   1.404       .  A
C1040      C1041   1.404       .  A
C1040      N1045   1.438       .  S
C1041      C1042   1.402       .  A
C1041      H1046   1.084       .  S
C1042      C1047   1.489       .  S
C1042      C1043   1.414       .  A
C1043      C1044   1.405       .  A
C1043      N1048   1.438       .  S
C1044      H1049   1.083       .  S
N1045      H1065   1.046       .  S
N1045      H1066   1.046       .  S
C1047      C1050   1.399       .  A
C1047      C1054   1.412       .  A
N1048      H1063   1.046       .  S
N1048      H1064   1.045       .  S
C1050      C1051   1.401       .  A
C1050      H1055   1.084       .  S
C1051      C1052   1.420       .  A
C1051      N1056   1.433       .  S
C1052      C1053   1.410       .  A
C1053      C1054   1.406       .  A
C1053      H1057   1.075       .  S
C1054      N1058   1.439       .  S
N1056      H1059   1.046       .  S
N1056      H1060   1.045       .  S
N1058      H1061   1.045       .  S
N1058      H1062   1.046       .  S
C1067      C1068   1.414       .  A
C1067      C1072   1.409       .  A
C1068      C1069   1.403       .  A
C1068      N1073   1.438       .  S
C1069      C1070   1.404       .  A
C1069      H1074   1.084       .  S
C1070      C1075   1.491       .  S
C1070      C1071   1.410       .  A
C1071      C1072   1.409       .  A
C1071      N1076   1.437       .  S
C1072      H1077   1.083       .  S
N1073      H1093   1.046       .  S
N1073      H1094   1.046       .  S
C1075      C1078   1.405       .  A
C1075      C1082   1.411       .  A
N1076      H1091   1.046   1_455  S
N1076      H1092   1.045       .  S
C1078      C1079   1.410       .  A
C1078      H1083   1.083       .  S
C1079      C1080   1.413       .  A
C1079      N1084   1.436       .  S
C1080      C1081   1.403       .  A
C1081      C1082   1.403       .  A
C1081      H1085   1.084       .  S
C1082      N1086   1.438       .  S
N1084      H1087   1.046       .  S
N1084      H1088   1.043       .  S
N1086      H1089   1.046       .  S
N1086      H1090   1.045       .  S
C1095      C1096   1.415       .  A
C1095      C1100   1.404       .  A
C1096      C1097   1.400       .  A
C1096      N1101   1.439       .  S
C1097      C1098   1.400       .  A
C1097      H1102   1.084       .  S
C1098      C1103   1.481       .  S
C1098      C1099   1.410       .  A
C1099      C1100   1.408       .  A
C1099      N1104   1.437       .  S
C1100      H1105   1.084       .  S
N1101      H1121   1.045       .  S
N1101      H1122   1.046       .  S
C1103      C1106   1.400       .  A
C1103      C1110   1.408       .  A
N1104      H1119   1.046       .  S
N1104      H1120   1.046       .  S
C1106      C1107   1.407       .  A
C1106      H1111   1.084       .  S
C1107      C1108   1.421       .  A
C1107      N1112   1.438       .  S
C1108      C1109   1.407       .  A
C1109      C1110   1.403       .  A
C1109      H1113   1.083       .  S
C1110      N1114   1.438       .  S
N1112      H2405   1.046   1_455  S
N1112      H2406   1.045   1_455  S
N1114      H1117   1.046       .  S
N1114      H1118   1.046       .  S
H1115      N2402   1.046       .  S
H1116      N2402   1.046       .  S
C1123      C1124   1.420       .  A
C1123      C1128   1.409       .  A
C1124      C1125   1.404       .  A
C1124      N1129   1.438       .  S
C1125      C1126   1.400       .  A
C1125      H1130   1.084       .  S
C1126      C1131   1.483       .  S
C1126      C1127   1.408       .  A
C1127      C1128   1.406       .  A
C1127      N1132   1.438       .  S
C1128      H1133   1.083       .  S
N1129      H1149   1.046       .  S
N1129      H1150   1.046       .  S
C1131      C1134   1.398       .  A
C1131      C1138   1.409       .  A
N1132      H1147   1.045       .  S
N1132      H1148   1.046       .  S
C1134      C1135   1.400       .  A
C1134      H1139   1.084       .  S
C1135      C1136   1.420       .  A
C1135      N1140   1.434       .  S
C1136      C1137   1.410       .  A
C1137      C1138   1.406       .  A
C1137      H2431   1.076       .  S
C1138      N1142   1.438       .  S
N1140      H1143   1.046       .  S
N1140      H1144   1.046       .  S
H1141      C2427   1.075   1_455  S
N1142      H2435   1.045       .  S
N1142      H1146   1.046       .  S
H1145      N2432   1.045       .  S
C1151      C1152   1.410       .  A
C1151      C1156   1.399       .  A
C1152      C1153   1.410       .  A
C1152      N1157   1.437       .  S
C1153      C1154   1.404       .  A
C1153      H1158   1.084       .  S
C1154      C1159   1.484       .  S
C1154      C1155   1.410       .  A
C1155      C1156   1.403       .  A
C1155      N1160   1.438       .  S
C1156      H1161   1.080       .  S
N1157      H1177   1.045       .  S
N1157      H1178   1.046       .  S
C1159      C1162   1.400       .  A
C1159      C1166   1.409       .  A
N1160      H1175   1.046       .  S
N1160      H1176   1.046       .  S
C1162      C1163   1.402       .  A
C1162      H1167   1.084       .  S
C1163      C1164   1.415       .  A
C1163      N1168   1.439       .  S
C1164      C1165   1.408       .  A
C1165      C1166   1.412       .  A
C1165      H1169   1.083       .  S
C1166      N1170   1.437       .  S
N1168      H1171   1.046       .  S
N1168      H1172   1.046       .  S
N1170      H1173   1.046       .  S
N1170      H1174   1.046       .  S
C1179      C1180   1.408       .  A
C1179      C1184   1.407       .  A
C1180      C1181   1.408       .  A
C1180      N2475   1.430       .  S
C1181      C1182   1.404       .  A
C1181      H1186   1.084       .  S
C1182      C1187   1.484       .  S
C1182      C1183   1.408       .  A
C1183      C1184   1.404       .  A
C1183      N1188   1.438       .  S
C1184      H1189   1.084       .  S
N1185      C2470   1.429   1_455  S
N1185      H1205   1.045       .  S
N1185      H1206   1.046       .  S
C1187      C1190   1.401       .  A
C1187      C1194   1.408       .  A
N1188      H1203   1.046       .  S
N1188      H1204   1.046       .  S
C1190      C1191   1.406       .  A
C1190      H1195   1.084       .  S
C1191      C1192   1.417       .  A
C1191      N1196   1.438       .  S
C1192      C1193   1.408       .  A
C1193      C1194   1.409       .  A
C1193      H1197   1.083       .  S
C1194      N1198   1.437       .  S
N1196      H1199   1.046       .  S
N1196      H1200   1.046       .  S
N1198      H1201   1.046       .  S
N1198      H1202   1.046       .  S
C1207      C1208   1.414       .  A
C1207      C1212   1.403       .  A
C1208      C1209   1.407       .  A
C1208      N1213   1.438       .  S
C1209      C1210   1.404       .  A
C1209      H1214   1.083       .  S
C1210      C1215   1.493       .  S
C1210      C1211   1.414       .  A
C1211      C1212   1.407       .  A
C1211      N1216   1.438       .  S
C1212      H1217   1.084       .  S
N1213      H1233   1.045       .  S
N1213      H1234   1.046       .  S
C1215      C1218   1.402       .  A
C1215      C1222   1.414       .  A
N1216      H1231   1.046       .  S
N1216      H1232   1.046       .  S
C1218      C1219   1.403       .  A
C1218      H1223   1.083       .  S
C1219      C1220   1.416       .  A
C1219      N1224   1.438       .  S
C1220      C1221   1.404       .  A
C1221      C1222   1.410       .  A
C1221      H1225   1.082       .  S
C1222      N1226   1.437       .  S
N1224      H1227   1.045       .  S
N1224      H1228   1.045       .  S
N1226      H1229   1.046       .  S
N1226      H1230   1.045       .  S
C1235      C1236   1.409       .  A
C1235      C1240   1.400       .  A
C1236      C1237   1.407       .  A
C1236      N1241   1.438       .  S
C1237      C1238   1.405       .  A
C1237      H1242   1.084       .  S
C1238      C1243   1.490   1_455  S
C1238      C1239   1.413       .  A
C1239      C1240   1.408       .  A
C1239      N1244   1.438       .  S
C1240      H1245   1.083       .  S
N1241      H1261   1.046       .  S
N1241      H1262   1.045       .  S
C1243      C2536   1.402       .  A
C1243      C2540   1.411       .  A
N1244      H1259   1.046       .  S
N1244      H1260   1.046       .  S
C1246      C2533   1.402       .  A
C1246      C1247   1.410       .  A
C1246      H1251   1.084       .  S
C1247      C1248   1.419       .  A
C1247      N1252   1.438       .  S
C1248      C1249   1.408       .  A
C1249      C1250   1.406       .  A
C1249      H1253   1.083       .  S
C1250      C2533   1.411       .  A
C1250      N2544   1.438       .  S
N1252      H1255   1.046       .  S
N1252      H1256   1.046       .  S
N1254      C2540   1.438   1_455  S
N1254      H2547   1.046   1_455  S
N1254      H1258   1.046       .  S
H1257      N2544   1.046       .  S
C1263      C1264   1.415       .  A
C1263      C1268   1.404       .  A
C1264      C1265   1.405       .  A
C1264      N1269   1.438       .  S
C1265      H1270   1.084       .  S
C1266      C1271   1.487   1_545  S
C1267      C1268   1.402       .  A
C1268      H1273   1.084       .  S
N1269      H1289   1.046       .  S
N1269      H1290   1.046       .  S
C1271      C1274   1.399       .  A
C1271      C1278   1.410       .  A
N1272      H1287   1.046       .  S
N1272      H1288   1.046       .  S
C1274      C1275   1.399       .  A
C1274      H1279   1.084       .  S
C1275      C1276   1.419       .  A
C1275      N1280   1.434       .  S
C1276      C1277   1.411       .  A
C1277      C1278   1.407       .  A
C1277      H1281   1.075       .  S
C1278      N1282   1.438       .  S
N1280      H1283   1.045       .  S
N1280      H1284   1.046       .  S
N1282      H1285   1.045       .  S
N1282      H1286   1.046       .  S
O1291      C1307   1.272       .  A
O1291     Zn1297   2.011       .  S
C1292      O1308   1.273       .  A
C1292      O1305   1.274       .  A
C1292      C1908   1.479       .  S
O1293      C1306   1.277       .  A
O1293     Cd1300   2.098       .  S
O1294      C1312   1.275       .  A
O1294     Cd1303   2.063       .  S
O1295      C1309   1.277       .  A
O1295     Cd1299   2.085       .  S
O1296      C1307   1.276       .  A
O1296     Cd1299   2.086       .  S
Zn1297     O1308   2.006       .  S
Zn1297     O1310   2.005       .  S
Zn1297     O1302   1.937       .  S
O1298      C1309   1.275       .  A
O1298     Cd1303   2.078       .  S
Cd1299     O1301   2.066       .  S
Cd1299     O1302   2.000       .  S
Cd1300     O1304   2.077       .  S
Cd1300     O1313   2.091       .  S
Cd1300     O1302   2.015       .  S
O1301      C1311   1.275       .  A
O1302     Cd1303   1.997       .  S
Cd1303     O1305   2.061       .  S
O1304      C1311   1.278       .  A
C1306      O1310   1.273       .  A
C1306      C1809   1.488       .  S
C1307      C1852   1.482       .  S
C1309      C1893   1.497       .  S
C1311      C1768   1.492       .  S
C1312      O1313   1.278       .  A
C1312      C1837   1.488       .  S
C1314      C1315   1.535       .  S
C1314      C1320   1.539       .  S
C1314      C1318   1.533       .  S
C1314      C1921   1.533       .  S
C1315      H1322   1.086       .  S
C1315      C1316   1.364       .  D
C1316      C1317   1.542       .  S
C1316      C1865   1.491       .  S
C1317      C1321   1.542       .  S
C1317      C1319   1.539       .  S
C1317      H1323   1.111       .  S
C1318      H1324   1.087       .  S
C1318      C1319   1.363       .  D
C1319      C1378   1.472       .  S
C1320      H1325   1.082       .  S
C1320      C1321   1.366       .  D
C1321      C1880   1.478       .  S
C1326      C1332   1.535       .  S
C1326      C1330   1.531       .  S
C1326      C1781   1.534       .  S
C1327      H1334   1.082       .  S
C1327      C1973   1.366       .  D
C1328      C1329   1.545       .  S
C1328      C1972   1.366   1_545  D
C1328      C1796   1.479       .  S
C1329      C1331   1.543   1_545  S
C1329      H1335   1.108       .  S
C1330      H1336   1.087       .  S
C1331      C1413   1.479   1_566  S
C1332      H1337   1.087       .  S
C1332      C1978   1.363       .  D
C1333      C1977   1.363   1_545  D
C1333      C1824   1.487       .  S
O1338      C1354   1.277       .  A
O1338     Zn1989   2.034       .  S
C1339      O1355   1.276       .  A
C1339      O1352   1.276       .  A
C1339      C1712   1.489       .  S
O1340      C1353   1.276       .  A
O1340     Cd1992   2.080   1_655  S
O1341      C1359   1.275       .  A
O1341     Cd1350   2.067       .  S
O1342      C1356   1.272       .  A
O1343      C1354   1.273       .  A
O1343     Cd1346   2.056       .  S
Zn1344     O1983   2.035   1_545  S
Zn1344     O1357   2.033       .  S
Zn1344     O1994   1.953   1_655  S
O1345      C1356   1.277       .  A
O1345     Cd1995   2.083       .  S
Cd1346     O1348   2.062       .  S
Cd1346     O1349   1.992   1_655  S
Cd1347     O1985   2.081   1_455  S
Cd1347     O1351   2.084   1_455  S
Cd1347     O1349   2.011       .  S
O1348      C1358   1.274       .  A
O1349     Zn1989   1.953   1_455  S
Cd1350     O1990   2.072   1_545  S
Cd1350     O1352   2.071       .  S
O1351      C1358   1.277       .  A
C1353      O1357   1.278       .  A
C1353      C1669   1.499       .  S
C1354      C1684   1.484       .  S
C1356      C1753   1.493       .  S
C1358      C1641   1.487       .  S
C1359      O1360   1.278       .  A
C1359      C1613   1.485       .  S
C1361      C1362   1.543       .  S
C1361      C1367   1.533       .  S
C1361      C1365   1.527       .  S
C1361      C1628   1.539       .  S
C1362      H1369   1.085       .  S
C1362      C1363   1.363       .  D
C1363      C1364   1.542       .  S
C1363      C1656   1.489       .  S
C1364      C1368   1.547       .  S
C1364      C1366   1.544       .  S
C1364      H1370   1.110       .  S
C1365      H1371   1.087       .  S
C1365      C1366   1.369       .  D
C1366      C1425   1.482       .  S
C1367      H1372   1.085       .  S
C1367      C1368   1.368       .  D
C1368      C1600   1.488       .  S
C1373      C1374   1.533       .  S
C1373      C1379   1.544       .  S
C1373      C1377   1.531       .  S
C1373      C1697   1.536       .  S
C1374      H1381   1.086       .  S
C1374      C1375   1.364       .  D
C1375      C1376   1.542       .  S
C1375      C1740   1.488       .  S
C1376      C1380   1.541       .  S
C1376      C1378   1.539       .  S
C1376      H1382   1.110       .  S
C1377      H1383   1.086       .  S
C1377      C1378   1.364       .  D
C1379      H1384   1.081       .  S
C1379      C1380   1.370       .  D
C1380      C1725   1.488       .  S
O1385      C1401   1.273       .  A
O1385     Zn1391   2.025       .  S
C1386      O1402   1.274       .  A
C1386      O1399   1.275       .  A
C1386      C1572   1.487       .  S
O1387      C1400   1.274       .  A
O1387     Cd1394   2.075       .  S
O1388      C1406   1.277       .  A
O1388     Cd1397   2.089       .  S
O1389      C1403   1.277       .  A
O1389     Cd1393   2.078       .  S
O1390      C1401   1.276       .  A
O1390     Cd1393   2.082       .  S
Zn1391     O1402   2.009       .  S
Zn1391     O1404   2.010       .  S
Zn1391     O1396   1.943       .  S
O1392      C1403   1.278       .  A
O1392     Cd1397   2.080       .  S
Cd1393     O1395   2.071       .  S
Cd1393     O1396   2.000       .  S
Cd1394     O1398   2.069       .  S
Cd1394     O1407   2.077       .  S
Cd1394     O1396   2.008       .  S
O1395      C1405   1.276       .  A
O1396     Cd1397   2.003       .  S
Cd1397     O1399   2.070       .  S
O1398      C1405   1.274       .  A
C1400      O1404   1.274       .  A
C1400      C1460   1.473       .  S
C1401      C1529   1.489       .  S
C1403      C1544   1.492       .  S
C1405      C1445   1.477       .  S
C1406      O1407   1.276       .  A
C1406      C1488   1.492       .  S
C1408      C2054   1.530       .  S
C1408      C1414   1.533       .  S
C1408      C1412   1.538       .  S
C1408      C1432   1.534       .  S
C1409      C2053   1.528   1_545  S
C1409      H1416   1.086       .  S
C1410      C1411   1.549       .  S
C1410      C1473   1.492       .  S
C1411      C2060   1.540   1_545  S
C1411      C1413   1.543       .  S
C1411      H1417   1.108       .  S
C1412      H1418   1.082       .  S
C1414      H1419   1.087       .  S
C1415      C2056   1.542       .  S
C1415      C1501   1.486       .  S
C1420      C1421   1.536       .  S
C1420      C1426   1.530       .  S
C1420      C1424   1.538       .  S
C1420      C1585   1.535       .  S
C1421      H1428   1.086       .  S
C1421      C1422   1.364       .  D
C1422      C1423   1.543       .  S
C1422      C1516   1.485       .  S
C1423      C1427   1.547       .  S
C1423      C1425   1.543       .  S
C1423      H1429   1.110       .  S
C1424      H1430   1.081       .  S
C1424      C1425   1.364       .  D
C1426      H1431   1.087       .  S
C1426      C1427   1.368       .  D
C1427      C1557   1.489       .  S
C1432      C1433   1.418       .  A
C1432      C1437   1.412       .  A
C1433      C1434   1.398       .  A
C1433      N1438   1.434       .  S
C1434      C1435   1.398       .  A
C1434      H1439   1.084       .  S
C1435      C1440   1.483       .  S
C1435      C1436   1.409       .  A
C1436      C1437   1.409       .  A
C1436      N1441   1.438       .  S
C1437      H1442   1.076       .  S
N1438      H1458   1.045       .  S
N1438      H1459   1.046       .  S
C1440      C1443   1.403       .  A
C1440      C1447   1.411       .  A
N1441      H1456   1.045       .  S
N1441      H1457   1.046       .  S
C1443      C1444   1.406       .  A
C1443      H1448   1.084       .  S
C1444      C1445   1.413       .  A
C1444      N1449   1.438       .  S
C1445      C1446   1.403       .  A
C1446      C1447   1.403       .  A
C1446      H1450   1.084       .  S
C1447      N1451   1.438       .  S
N1449      H1452   1.046       .  S
N1449      H1453   1.045       .  S
N1451      H1454   1.046       .  S
N1451      H1455   1.046       .  S
C1460      C1461   1.411       .  A
C1460      C1465   1.403       .  A
C1461      C1462   1.407       .  A
C1461      N1466   1.438       .  S
C1462      C1463   1.403       .  A
C1462      H1467   1.084       .  S
C1463      C1468   1.477       .  S
C1463      C1464   1.408       .  A
C1464      C1465   1.403       .  A
C1464      N1469   1.439       .  S
C1465      H1470   1.084       .  S
N1466      H1486   1.046       .  S
N1466      H1487   1.046       .  S
C1468      C1471   1.402       .  A
C1468      C1475   1.406       .  A
N1469      H1484   1.046       .  S
N1469      H1485   1.045       .  S
C1471      C1472   1.411       .  A
C1471      H1476   1.083       .  S
C1472      C1473   1.413       .  A
C1472      N1477   1.435       .  S
C1473      C1474   1.408       .  A
C1474      C1475   1.400       .  A
C1475      N1479   1.439       .  S
N1477      H1480   1.046       .  S
N1477      H1481   1.045       .  S
N1479      H1483   1.044       .  S
C1488      C1489   1.416       .  A
C1488      C1493   1.409       .  A
C1489      C1490   1.408       .  A
C1489      N1494   1.438       .  S
C1490      C1491   1.402       .  A
C1490      H1495   1.084       .  S
C1491      C1496   1.484       .  S
C1491      C1492   1.407       .  A
C1492      C1493   1.409       .  A
C1492      N1497   1.437       .  S
C1493      H1498   1.083       .  S
N1494      H1514   1.046       .  S
N1494      H1515   1.046       .  S
C1496      C1499   1.405       .  A
C1496      C1503   1.408       .  A
N1497      H1512   1.046       .  S
N1497      H1513   1.045       .  S
C1499      C1500   1.409       .  A
C1499      H1504   1.084       .  S
C1500      C1501   1.408       .  A
C1500      N2150   1.432       .  S
C1501      C1502   1.405       .  A
C1502      C1503   1.405       .  A
C1502      H1506   1.084       .  S
C1503      N1507   1.438       .  S
N1505      C2145   1.437   1_545  S
N1505      H1508   1.045       .  S
N1505      H1509   1.045       .  S
N1507      H1510   1.046       .  S
N1507      H1511   1.045       .  S
C1516      C1517   1.417       .  A
C1516      C1521   1.404       .  A
C1517      C1518   1.397       .  A
C1517      N1522   1.434       .  S
C1518      C1519   1.401       .  A
C1518      H1523   1.084       .  S
C1519      C1524   1.487       .  S
C1519      C1520   1.412       .  A
C1520      C1521   1.411       .  A
C1520      N1525   1.437       .  S
C1521      H1526   1.084       .  S
N1522      H1542   1.044       .  S
N1522      H1543   1.042       .  S
C1524      C1527   1.402       .  A
C1524      C1531   1.411       .  A
N1525      H1540   1.046       .  S
N1525      H1541   1.045       .  S
C1527      C1528   1.411       .  A
C1527      H1532   1.084       .  S
C1528      C1529   1.417       .  A
C1528      N1533   1.438       .  S
C1529      C1530   1.404       .  A
C1530      C1531   1.405       .  A
C1530      H1534   1.084       .  S
C1531      N1535   1.438       .  S
N1533      H1536   1.046       .  S
N1533      H1537   1.046       .  S
N1535      H1538   1.045       .  S
N1535      H1539   1.046       .  S
C1544      C1545   1.417       .  A
C1544      C1549   1.409       .  A
C1545      C1546   1.406       .  A
C1545      N1550   1.438       .  S
C1546      C2192   1.403       .  A
C1546      H2196   1.084       .  S
C1547      C1552   1.490   1_565  S
C1547      C2191   1.404       .  A
C1547      C2193   1.410       .  A
C1548      C2192   1.409       .  A
C1548      C1549   1.408       .  A
C1548      N1553   1.437       .  S
C1549      H1554   1.083       .  S
N1550      H1570   1.046       .  S
N1550      H1571   1.046       .  S
H1551      C2191   1.084       .  S
C1552      C1555   1.405       .  A
C1552      C1559   1.411       .  A
N1553      H1568   1.046       .  S
N1553      H1569   1.046       .  S
C1555      C1556   1.406       .  A
C1555      H1560   1.084       .  S
C1556      C1557   1.410       .  A
C1556      N1561   1.431       .  S
C1557      C1558   1.405       .  A
C1558      C1559   1.405       .  A
C1558      H1562   1.084       .  S
C1559      N1563   1.438       .  S
N1561      H1564   1.045       .  S
N1561      H1565   1.045       .  S
N1563      H1566   1.046       .  S
N1563      H2212   1.046   1_545  S
H1567      N2208   1.046       .  S
C1572      C1573   1.416       .  A
C1572      C1577   1.409       .  A
C1573      C1574   1.404       .  A
C1573      N1578   1.438       .  S
C1574      H1579   1.084       .  S
C1575      C1580   1.482       .  S
C1575      C1576   1.408   1_655  A
C1576      N1581   1.438   1_455  S
C1577      H1582   1.083       .  S
N1578      H1598   1.046       .  S
N1578      H1599   1.046       .  S
C1580      C1583   1.399       .  A
C1580      C1587   1.407       .  A
N1581      H1596   1.046   1_655  S
N1581      H1597   1.046       .  S
C1583      C1584   1.402       .  A
C1583      H1588   1.084       .  S
C1584      C1585   1.419       .  A
C1584      N1589   1.433       .  S
C1585      C1586   1.412       .  A
C1586      C1587   1.404       .  A
C1586      H1590   1.074       .  S
C1587      N1591   1.439       .  S
N1589      H1592   1.046       .  S
N1589      H1593   1.045       .  S
N1591      H1594   1.045       .  S
C1600      C1601   1.411       .  A
C1600      C1605   1.404       .  A
C1601      C1602   1.412       .  A
C1601      N1606   1.437       .  S
C1602      C1603   1.407       .  A
C1602      H1607   1.083       .  S
C1603      C1608   1.490       .  S
C1603      C1604   1.411       .  A
C1604      C1605   1.400       .  A
C1604      N1609   1.439       .  S
C1605      H1610   1.084       .  S
N1606      H1626   1.045       .  S
N1606      H1627   1.046       .  S
C1608      C1611   1.403       .  A
C1608      C1615   1.413       .  A
N1609      H1624   1.046       .  S
N1609      H1625   1.046       .  S
C1611      C1612   1.401       .  A
C1611      H1616   1.084       .  S
C1612      C1613   1.411       .  A
C1612      N1617   1.433       .  S
C1613      C1614   1.405       .  A
C1614      C1615   1.411       .  A
C1614      H1618   1.083       .  S
C1615      N1619   1.437       .  S
N1617      H2265   1.046       .  S
N1617      H2266   1.046       .  S
N1619      H1622   1.046       .  S
N1619      H1623   1.045       .  S
H1620      N2262   1.046       .  S
H1621      N2262   1.045       .  S
C1628      C1629   1.420       .  A
C1628      C1633   1.412       .  A
C1629      C1630   1.410       .  A
C1629      N1634   1.437       .  S
C1630      C1631   1.402       .  A
C1630      H1635   1.084       .  S
C1631      C1636   1.485       .  S
C1631      C1632   1.406       .  A
C1632      C1633   1.402       .  A
C1632      N1637   1.438       .  S
C1633      H1638   1.081       .  S
N1634      H1654   1.045       .  S
N1634      H1655   1.046       .  S
C1636      C1639   1.401       .  A
C1636      C1643   1.409       .  A
N1637      H1652   1.046       .  S
N1637      H1653   1.046       .  S
C1639      C1640   1.403       .  A
C1639      H1644   1.084       .  S
C1640      C1641   1.416       .  A
C1640      N1645   1.439       .  S
C1641      C1642   1.408       .  A
C1642      C1643   1.409       .  A
C1642      H1646   1.083       .  S
C1643      N1647   1.437       .  S
N1645      H1648   1.046       .  S
N1645      H1649   1.046       .  S
N1647      H1650   1.046       .  S
N1647      H1651   1.046       .  S
C1656      C1657   1.411       .  A
C1656      C1661   1.405       .  A
C1657      C1658   1.411       .  A
C1657      N1662   1.437       .  S
C1658      C1659   1.406       .  A
C1658      H1663   1.084       .  S
C1659      C1664   1.489       .  S
C1659      C1660   1.410       .  A
C1660      C1661   1.404       .  A
C1660      N1665   1.438       .  S
C1661      H1666   1.084       .  S
N1662      H1682   1.045       .  S
N1662      H1683   1.045       .  S
C1664      C1667   1.401       .  A
C1664      C1671   1.409       .  A
N1665      H1680   1.046       .  S
N1665      H1681   1.046       .  S
C1667      C1668   1.409       .  A
C1667      H1672   1.084       .  S
C1668      C1669   1.421       .  A
C1668      N1673   1.438       .  S
C1669      C1670   1.410       .  A
C1670      C1671   1.407       .  A
C1670      H1674   1.083       .  S
C1671      N1675   1.438       .  S
N1673      H1676   1.046       .  S
N1673      H1677   1.046       .  S
N1675      H1678   1.046       .  S
N1675      H1679   1.046       .  S
C1684      C1685   1.416       .  A
C1684      C1689   1.404       .  A
C1685      C1686   1.405       .  A
C1685      N1690   1.438       .  S
C1686      C1687   1.403       .  A
C1686      H1691   1.084       .  S
C1687      C1692   1.488       .  S
C1687      C1688   1.413       .  A
C1688      C1689   1.405       .  A
C1688      N1693   1.438       .  S
C1689      H1694   1.083       .  S
N1690      H1710   1.046       .  S
N1690      H1711   1.046       .  S
C1692      C1695   1.400       .  A
C1692      C1699   1.411       .  A
N1693      H1708   1.046       .  S
N1693      H1709   1.045       .  S
C1695      C1696   1.402       .  A
C1695      H1700   1.084       .  S
C1696      C1697   1.419       .  A
C1696      N1701   1.433       .  S
C1697      C1698   1.411       .  A
C1698      C1699   1.406       .  A
C1698      H1702   1.075       .  S
C1699      N1703   1.439       .  S
N1701      H1704   1.046       .  S
N1701      H1705   1.045       .  S
N1703      H1706   1.045       .  S
N1703      H1707   1.046       .  S
C1712      C1713   1.415       .  A
C1712      C1717   1.409       .  A
C1713      C1714   1.403       .  A
C1713      N1718   1.438       .  S
C1714      C1715   1.403       .  A
C1714      H1719   1.084       .  S
C1715      C1720   1.489       .  S
C1715      C1716   1.410       .  A
C1716      C1717   1.409       .  A
C1716      N1721   1.437       .  S
C1717      H1722   1.083       .  S
N1718      H1738   1.046       .  S
N1718      H1739   1.046       .  S
C1720      C1723   1.405       .  A
C1720      C1727   1.411       .  A
N1721      H1736   1.046       .  S
N1721      H1737   1.045       .  S
C1723      C1724   1.409       .  A
C1723      H1728   1.083       .  S
C1724      C1725   1.413       .  A
C1724      N1729   1.436       .  S
C1725      C1726   1.404       .  A
C1726      C1727   1.403       .  A
C1726      H1730   1.084       .  S
C1727      N1731   1.438       .  S
N1729      H1732   1.046       .  S
N1729      H1733   1.044       .  S
N1731      H1734   1.046       .  S
N1731      H1735   1.045       .  S
C1740      C1741   1.415       .  A
C1740      C1745   1.405       .  A
C1741      C1742   1.401       .  A
C1741      N1746   1.439       .  S
C1742      C1743   1.400       .  A
C1742      H1747   1.084       .  S
C1743      C1748   1.485       .  S
C1743      C1744   1.411       .  A
C1744      C1745   1.410       .  A
C1744      N1749   1.437       .  S
C1745      H1750   1.084       .  S
N1746      H1766   1.045       .  S
N1746      H1767   1.045       .  S
C1748      C1751   1.400       .  A
C1748      C1755   1.409       .  A
N1749      H1764   1.046       .  S
N1749      H1765   1.046       .  S
C1751      C1752   1.408       .  A
C1751      H1756   1.084       .  S
C1752      C1753   1.421       .  A
C1752      N1757   1.438       .  S
C1753      C1754   1.407       .  A
C1754      C1755   1.405       .  A
C1754      H1758   1.083       .  S
C1755      N1759   1.438       .  S
N1759      H1762   1.046       .  S
N1759      H1763   1.045       .  S
C1768      C1769   1.420       .  A
C1768      C1773   1.409       .  A
C1769      C1770   1.404       .  A
C1769      N1774   1.438       .  S
C1770      C1771   1.400       .  A
C1770      H1775   1.084       .  S
C1771      C1776   1.483       .  S
C1771      C1772   1.408       .  A
C1772      C1773   1.405       .  A
C1772      N1777   1.438       .  S
C1773      H1778   1.083       .  S
N1774      H1794   1.046       .  S
N1774      H1795   1.046       .  S
C1776      C1779   1.398       .  A
C1776      C1783   1.409       .  A
N1777      H1792   1.046       .  S
N1777      H1793   1.045       .  S
C1779      C1780   1.400       .  A
C1779      H1784   1.084       .  S
C1780      C1781   1.420       .  A
C1780      N1785   1.434       .  S
C1781      C1782   1.411   1_655  A
C1782      C1783   1.407   1_455  A
C1783      N1787   1.438   1_655  S
N1785      H1788   1.045       .  S
N1785      H1789   1.046       .  S
N1787      H1791   1.046       .  S
C1796      C1797   1.409       .  A
C1796      C1801   1.400       .  A
C1797      C1798   1.411       .  A
C1797      N1802   1.437       .  S
C1798      C1799   1.405       .  A
C1798      H1803   1.083       .  S
C1799      C1804   1.487       .  S
C1799      C1800   1.411       .  A
C1800      C1801   1.404       .  A
C1800      N1805   1.438       .  S
C1801      H1806   1.082       .  S
N1802      H1822   1.045       .  S
N1802      H1823   1.046       .  S
C1804      C1807   1.401       .  A
C1804      C1811   1.410       .  A
N1805      H1820   1.046       .  S
N1805      H1821   1.046       .  S
C1807      C1808   1.403       .  A
C1807      H1812   1.084       .  S
C1808      C1809   1.415       .  A
C1808      N1813   1.439       .  S
C1809      C1810   1.408       .  A
C1810      C1811   1.413       .  A
C1810      H1814   1.083       .  S
C1811      N1815   1.437       .  S
N1813      H1816   1.046       .  S
N1813      H1817   1.046       .  S
N1815      H1818   1.046       .  S
N1815      H1819   1.046       .  S
C1824      C1825   1.408       .  A
C1824      C1829   1.406       .  A
C1825      C1826   1.407       .  A
C1826      C1827   1.404       .  A
C1826      H1831   1.084       .  S
C1827      C1832   1.483       .  S
C1827      C1828   1.408       .  A
C1828      C1829   1.403       .  A
C1828      N1833   1.438       .  S
C1829      H1834   1.084   1_545  S
N1830      H1850   1.045       .  S
N1830      H1851   1.046       .  S
C1832      C1835   1.401       .  A
C1832      C1839   1.408       .  A
N1833      H1848   1.046   1_545  S
N1833      H1849   1.046       .  S
C1835      C1836   1.405       .  A
C1835      H1840   1.084       .  S
C1836      C1837   1.417       .  A
C1836      N1841   1.438       .  S
C1837      C1838   1.408       .  A
C1838      C1839   1.409       .  A
C1838      H1842   1.083       .  S
C1839      N1843   1.437       .  S
N1841      H1844   1.046       .  S
N1841      H1845   1.046       .  S
N1843      H1846   1.046       .  S
N1843      H1847   1.046       .  S
C1852      C1853   1.414       .  A
C1852      C1857   1.403       .  A
C1853      C1854   1.407       .  A
C1853      N1858   1.438       .  S
C1854      C1855   1.404       .  A
C1854      H1859   1.083       .  S
C1855      C1860   1.492       .  S
C1855      C1856   1.414       .  A
C1856      C1857   1.407       .  A
C1856      N1861   1.438       .  S
C1857      H1862   1.084       .  S
N1858      H1878   1.045       .  S
N1858      H1879   1.046       .  S
C1860      C1863   1.402       .  A
C1860      C1867   1.414       .  A
N1861      H1876   1.046       .  S
N1861      H1877   1.046       .  S
C1863      C1864   1.403       .  A
C1863      H1868   1.083       .  S
C1864      C1865   1.416       .  A
C1864      N1869   1.438       .  S
C1865      C1866   1.403       .  A
C1866      C1867   1.410       .  A
C1866      H1870   1.082       .  S
C1867      N1871   1.437       .  S
N1869      H1872   1.045       .  S
N1869      H1873   1.045       .  S
N1871      H1874   1.046       .  S
N1871      H1875   1.045       .  S
C1880      C1881   1.408       .  A
C1880      C1885   1.401       .  A
C1881      C1882   1.406       .  A
C1881      N1886   1.438       .  S
C1882      C1883   1.405       .  A
C1882      H1887   1.084       .  S
C1883      C1888   1.489       .  S
C1883      C1884   1.414       .  A
C1884      C1885   1.408       .  A
C1884      N1889   1.438       .  S
C1885      H1890   1.083       .  S
N1886      H1906   1.046       .  S
N1886      H1907   1.045       .  S
N1889      H1904   1.046       .  S
N1889      H1905   1.046       .  S
C1891      C1892   1.411       .  A
C1891      H1896   1.084       .  S
C1892      C1893   1.420       .  A
C1892      N1897   1.438       .  S
C1893      C1894   1.407       .  A
C1894      C1895   1.406       .  A
C1894      H1898   1.083       .  S
N1897      H1900   1.046       .  S
N1897      H1901   1.046       .  S
N1899      H1903   1.046       .  S
C1908      C1909   1.415       .  A
C1908      C1913   1.403       .  A
C1909      C1910   1.405       .  A
C1909      N1914   1.438       .  S
C1910      C2556   1.403       .  A
C1910      H1915   1.084       .  S
C1911      C1916   1.485       .  S
C1911      C2555   1.402       .  A
C1911      C2557   1.412       .  A
C1912      C2556   1.412       .  A
C1912      C1913   1.401       .  A
C1912      N2562   1.439   1_545  S
C1913      H1918   1.084       .  S
N1914      H1934   1.046       .  S
N1914      H1935   1.046       .  S
C1916      C1919   1.399       .  A
C1916      C1923   1.410       .  A
N1917      C2557   1.439       .  S
N1917      H1932   1.046       .  S
N1917      H1933   1.046       .  S
C1919      C1920   1.398       .  A
C1919      H1924   1.084       .  S
C1920      C1921   1.419       .  A
C1920      N1925   1.434       .  S
C1921      C1922   1.411       .  A
C1922      C1923   1.407       .  A
C1922      H1926   1.075       .  S
C1923      N1927   1.438       .  S
N1925      H1928   1.046       .  S
N1925      H1929   1.046       .  S
N1927      H1930   1.045       .  S
N1927      H1931   1.046       .  S
O1936      C1952   1.272       .  A
O1936     Zn1942   2.012       .  S
C1937      O1953   1.273       .  A
C1937      O1950   1.275       .  A
C1937      C2553   1.482       .  S
O1938      C1951   1.277       .  A
O1938     Cd1945   2.095       .  S
O1939      C1957   1.275       .  A
O1939     Cd1948   2.067       .  S
O1940      C1954   1.277       .  A
O1940     Cd1944   2.083       .  S
O1941      C1952   1.276       .  A
O1941     Cd1944   2.083       .  S
Zn1942     O1953   2.009       .  S
Zn1942     O1955   2.003       .  S
Zn1942     O1947   1.937       .  S
O1943      C1954   1.275       .  A
O1943     Cd1948   2.078       .  S
Cd1944     O1946   2.064       .  S
Cd1944     O1947   2.000       .  S
Cd1945     O1949   2.079       .  S
Cd1945     O1958   2.090       .  S
Cd1945     O1947   2.015       .  S
O1946      C1956   1.275       .  A
O1947     Cd1948   1.998       .  S
Cd1948     O1950   2.064       .  S
O1949      C1956   1.278       .  A
C1951      O1955   1.273       .  A
C1951      C2454   1.488       .  S
C1952      C2497   1.481       .  S
C1954      C2538   1.497       .  S
C1956      C2413   1.492       .  S
C1957      O1958   1.278       .  A
C1957      C2482   1.490       .  S
C1959      C1960   1.535       .  S
C1959      C1965   1.540       .  S
C1959      C1963   1.534       .  S
C1959      C2566   1.533       .  S
C1960      H1967   1.086       .  S
C1960      C1961   1.364       .  D
C1961      C1962   1.542       .  S
C1961      C2510   1.490       .  S
C1962      C1966   1.543       .  S
C1962      C1964   1.539       .  S
C1962      H1968   1.111       .  S
C1963      H1969   1.087       .  S
C1963      C1964   1.364       .  D
C1964      C2023   1.473       .  S
C1965      H1970   1.081       .  S
C1965      C1966   1.365       .  D
C1966      C2525   1.478       .  S
C1971      C1977   1.534       .  S
C1971      C1975   1.531       .  S
C1971      C2426   1.533       .  S
C1972      H1979   1.082       .  S
C1973      C1974   1.545       .  S
C1973      C2441   1.479       .  S
C1974      C1976   1.543       .  S
C1974      H1980   1.107       .  S
C1975      H1981   1.087       .  S
C1976      C2058   1.480   1_556  S
C1977      H1982   1.087       .  S
C1978      C2469   1.489       .  S
O1983      C1999   1.276       .  A
C1984      O2000   1.276       .  A
C1984      O1997   1.276       .  A
C1984      C2357   1.491       .  S
O1985      C1998   1.276       .  A
O1986      C2004   1.275       .  A
O1986     Cd1995   2.069       .  S
O1987      C2001   1.273       .  A
O1988      C1999   1.273       .  A
O1988     Cd1991   2.056       .  S
Zn1989     O2002   2.037       .  S
O1990      C2001   1.275       .  A
Cd1991     O1993   2.066       .  S
Cd1991     O1994   1.994   1_665  S
Cd1992     O1996   2.080   1_445  S
Cd1992     O1994   2.009       .  S
O1993      C2003   1.275       .  A
Cd1995     O1997   2.076       .  S
O1996      C2003   1.276       .  A
C1998      O2002   1.278       .  A
C1998      C2314   1.500       .  S
C1999      C2329   1.485       .  S
C2001      C2398   1.485       .  S
C2003      C2286   1.486       .  S
C2004      O2005   1.277       .  A
C2004      C2258   1.485       .  S
C2006      C2007   1.542       .  S
C2006      C2012   1.534       .  S
C2006      C2010   1.529       .  S
C2006      C2273   1.540       .  S
C2007      H2014   1.085       .  S
C2007      C2008   1.363       .  D
C2008      C2009   1.542       .  S
C2008      C2301   1.488       .  S
C2009      C2013   1.546       .  S
C2009      C2011   1.542       .  S
C2009      H2015   1.110       .  S
C2010      H2016   1.087       .  S
C2010      C2011   1.370       .  D
C2011      C2070   1.482       .  S
C2012      H2017   1.085       .  S
C2012      C2013   1.368       .  D
C2013      C2245   1.487       .  S
C2018      C2019   1.531       .  S
C2018      C2024   1.545       .  S
C2018      C2022   1.531       .  S
C2018      C2342   1.536       .  S
C2019      H2026   1.086       .  S
C2019      C2020   1.362       .  D
C2020      C2021   1.541       .  S
C2020      C2385   1.484       .  S
C2021      C2025   1.542       .  S
C2021      C2023   1.540       .  S
C2021      H2027   1.110       .  S
C2022      H2028   1.086       .  S
C2022      C2023   1.364       .  D
C2024      H2029   1.081       .  S
C2024      C2025   1.371       .  D
C2025      C2370   1.490       .  S
O2030      C2046   1.274       .  A
O2030     Zn2036   2.028       .  S
C2031      O2047   1.275       .  A
C2031      O2044   1.275       .  A
C2031      C2217   1.487       .  S
O2032      C2045   1.275       .  A
O2032     Cd2039   2.075       .  S
O2033      C2051   1.277       .  A
O2033     Cd2042   2.088       .  S
O2034      C2048   1.276       .  A
O2034     Cd2038   2.072       .  S
O2035      C2046   1.275       .  A
O2035     Cd2038   2.076       .  S
Zn2036     O2047   2.013       .  S
Zn2036     O2049   2.018       .  S
Zn2036     O2041   1.944       .  S
O2037      C2048   1.277       .  A
O2037     Cd2042   2.078       .  S
Cd2038     O2040   2.066       .  S
Cd2038     O2041   1.998       .  S
Cd2039     O2043   2.069       .  S
Cd2039     O2052   2.078       .  S
Cd2039     O2041   2.007       .  S
O2040      C2050   1.275       .  A
O2041     Cd2042   2.003       .  S
Cd2042     O2044   2.070       .  S
O2043      C2050   1.274       .  A
C2045      O2049   1.275       .  A
C2045      C2105   1.475       .  S
C2046      C2174   1.489       .  S
C2048      C2189   1.489       .  S
C2050      C2090   1.475       .  S
C2051      O2052   1.276       .  A
C2051      C2133   1.490       .  S
C2053      C2059   1.534       .  S
C2053      C2057   1.540       .  S
C2053      C2077   1.535       .  S
C2054      H2061   1.086       .  S
C2055      C2056   1.550       .  S
C2055      C2118   1.496       .  S
C2056      C2058   1.543       .  S
C2056      H2062   1.109       .  S
C2057      H2063   1.082       .  S
C2059      H2064   1.087       .  S
C2060      C2146   1.482       .  S
C2065      C2066   1.537       .  S
C2065      C2071   1.531       .  S
C2065      C2069   1.538       .  S
C2065      C2230   1.535       .  S
C2066      H2073   1.085       .  S
C2066      C2067   1.365       .  D
C2067      C2068   1.542       .  S
C2067      C2161   1.486       .  S
C2068      C2072   1.547       .  S
C2068      C2070   1.542       .  S
C2068      H2074   1.108       .  S
C2069      H2075   1.081       .  S
C2069      C2070   1.363       .  D
C2071      H2076   1.087       .  S
C2071      C2072   1.367       .  D
C2072      C2202   1.489       .  S
C2077      C2078   1.419       .  A
C2077      C2082   1.412       .  A
C2078      C2079   1.399       .  A
C2078      N2083   1.434       .  S
C2079      C2080   1.398       .  A
C2079      H2084   1.084       .  S
C2080      C2085   1.483       .  S
C2080      C2081   1.409       .  A
C2081      C2082   1.408       .  A
C2081      N2086   1.438       .  S
C2082      H2087   1.076       .  S
N2083      H2103   1.046       .  S
N2083      H2104   1.046       .  S
C2085      C2088   1.403       .  A
C2085      C2092   1.411       .  A
N2086      H2101   1.045       .  S
N2086      H2102   1.046       .  S
C2088      C2089   1.405       .  A
C2088      H2093   1.084       .  S
C2089      C2090   1.412       .  A
C2089      N2094   1.438       .  S
C2090      C2091   1.403       .  A
C2091      C2092   1.404       .  A
C2091      H2095   1.084       .  S
C2092      N2096   1.438       .  S
N2094      H2097   1.046       .  S
N2094      H2098   1.045       .  S
N2096      H2099   1.046       .  S
N2096      H2100   1.046       .  S
C2105      C2106   1.411       .  A
C2105      C2110   1.403       .  A
C2106      C2107   1.408       .  A
C2106      N2111   1.438       .  S
C2107      C2108   1.403       .  A
C2107      H2112   1.084       .  S
C2108      C2113   1.478       .  S
C2108      C2109   1.408       .  A
C2109      C2110   1.404       .  A
C2109      N2114   1.438       .  S
C2110      H2115   1.084       .  S
N2111      H2131   1.046       .  S
N2111      H2132   1.046       .  S
C2113      C2116   1.402       .  A
C2113      C2120   1.406       .  A
N2114      H2129   1.046       .  S
N2114      H2130   1.045       .  S
C2116      C2117   1.412       .  A
C2116      H2121   1.084       .  S
C2117      C2118   1.415       .  A
C2117      N2122   1.435       .  S
C2118      C2119   1.408       .  A
C2119      C2120   1.400       .  A
C2120      N2124   1.439       .  S
N2122      H2125   1.046       .  S
N2122      H2126   1.045       .  S
N2124      H2128   1.045       .  S
C2133      C2134   1.415       .  A
C2133      C2138   1.408       .  A
C2134      C2135   1.408       .  A
C2134      N2139   1.438       .  S
C2135      C2136   1.402       .  A
C2135      H2140   1.084       .  S
C2136      C2141   1.483       .  S
C2136      C2137   1.407       .  A
C2137      C2138   1.409       .  A
C2137      N2142   1.437       .  S
C2138      H2143   1.083       .  S
N2139      H2159   1.046       .  S
N2139      H2160   1.046       .  S
C2141      C2144   1.404       .  A
C2141      C2148   1.408       .  A
N2142      H2157   1.046       .  S
N2142      H2158   1.045       .  S
C2144      C2145   1.411       .  A
C2144      H2149   1.084       .  S
C2145      C2146   1.410       .  A
C2146      C2147   1.404       .  A
C2147      C2148   1.404       .  A
C2147      H2151   1.084       .  S
C2148      N2152   1.438       .  S
N2150      H2153   1.045       .  S
N2150      H2154   1.045       .  S
N2152      H2155   1.046       .  S
N2152      H2156   1.045       .  S
C2161      C2162   1.417       .  A
C2161      C2166   1.404       .  A
C2162      C2163   1.397       .  A
C2162      N2167   1.434       .  S
C2163      C2164   1.401       .  A
C2163      H2168   1.084       .  S
C2164      C2169   1.485       .  S
C2164      C2165   1.411       .  A
C2165      C2166   1.410       .  A
C2165      N2170   1.437       .  S
C2166      H2171   1.084       .  S
N2167      H2187   1.044       .  S
N2167      H2188   1.042       .  S
C2169      C2172   1.402       .  A
C2169      C2176   1.409       .  A
N2170      H2185   1.046       .  S
N2170      H2186   1.045       .  S
C2172      C2173   1.411       .  A
C2172      H2177   1.084       .  S
C2173      C2174   1.417       .  A
C2173      N2178   1.437       .  S
C2174      C2175   1.405       .  A
C2175      C2176   1.404       .  A
C2175      H2179   1.083       .  S
C2176      N2180   1.438       .  S
N2178      H2181   1.046       .  S
N2178      H2182   1.046       .  S
N2180      H2183   1.046       .  S
N2180      H2184   1.046       .  S
C2189      C2190   1.416       .  A
C2189      C2194   1.408       .  A
C2190      C2191   1.405       .  A
C2190      N2195   1.438       .  S
C2192      C2197   1.488       .  S
C2193      C2194   1.408       .  A
C2193      N2198   1.437       .  S
C2194      H2199   1.083       .  S
N2195      H2215   1.046       .  S
N2195      H2216   1.046       .  S
C2197      C2200   1.403       .  A
C2197      C2204   1.410       .  A
N2198      H2213   1.046       .  S
N2198      H2214   1.045       .  S
C2200      C2201   1.408       .  A
C2200      H2205   1.084       .  S
C2201      C2202   1.413       .  A
C2201      N2206   1.436       .  S
C2202      C2203   1.406       .  A
C2203      C2204   1.406       .  A
C2203      H2207   1.084       .  S
C2204      N2208   1.437       .  S
N2206      H2209   1.045       .  S
N2206      H2210   1.044       .  S
N2208      H2211   1.046       .  S
C2217      C2218   1.416       .  A
C2217      C2222   1.408       .  A
C2218      C2219   1.404       .  A
C2218      N2223   1.438       .  S
C2219      H2224   1.084       .  S
C2220      C2225   1.483       .  S
C2220      C2221   1.408   1_655  A
C2221      N2226   1.438   1_455  S
C2222      H2227   1.083       .  S
N2223      H2243   1.046       .  S
N2223      H2244   1.046       .  S
C2225      C2228   1.400       .  A
C2225      C2232   1.407       .  A
N2226      H2241   1.046   1_655  S
N2226      H2242   1.046       .  S
C2228      C2229   1.402       .  A
C2228      H2233   1.084       .  S
C2229      C2230   1.418       .  A
C2229      N2234   1.433       .  S
C2230      C2231   1.412       .  A
C2231      C2232   1.404       .  A
C2231      H2235   1.075       .  S
C2232      N2236   1.438       .  S
N2234      H2237   1.045       .  S
N2234      H2238   1.046       .  S
N2236      H2239   1.045       .  S
C2245      C2246   1.410       .  A
C2245      C2250   1.403       .  A
C2246      C2247   1.413       .  A
C2246      N2251   1.437       .  S
C2247      C2248   1.407       .  A
C2247      H2252   1.083       .  S
C2248      C2253   1.490       .  S
C2248      C2249   1.411       .  A
C2249      C2250   1.400       .  A
C2249      N2254   1.439       .  S
C2250      H2255   1.084       .  S
N2251      H2271   1.045       .  S
N2251      H2272   1.046       .  S
C2253      C2256   1.402       .  A
C2253      C2260   1.412       .  A
N2254      H2269   1.046       .  S
N2254      H2270   1.046       .  S
C2256      C2257   1.404       .  A
C2256      H2261   1.084       .  S
C2257      C2258   1.415       .  A
C2257      N2262   1.439       .  S
C2258      C2259   1.406       .  A
C2259      C2260   1.410       .  A
C2259      H2263   1.084       .  S
C2260      N2264   1.437       .  S
N2264      H2267   1.046       .  S
N2264      H2268   1.045       .  S
C2273      C2274   1.420       .  A
C2273      C2278   1.412       .  A
C2274      C2275   1.410       .  A
C2274      N2279   1.437       .  S
C2275      C2276   1.402       .  A
C2275      H2280   1.083       .  S
C2276      C2281   1.487       .  S
C2276      C2277   1.407       .  A
C2277      C2278   1.403       .  A
C2277      N2282   1.438       .  S
C2278      H2283   1.081       .  S
N2279      H2299   1.045       .  S
N2279      H2300   1.046       .  S
C2281      C2284   1.403       .  A
C2281      C2288   1.410       .  A
N2282      H2297   1.046       .  S
N2282      H2298   1.046       .  S
C2284      C2285   1.404       .  A
C2284      H2289   1.084       .  S
C2285      C2286   1.415       .  A
C2285      N2290   1.438       .  S
C2286      C2287   1.407       .  A
C2287      C2288   1.409       .  A
C2287      H2291   1.083       .  S
C2288      N2292   1.437       .  S
N2290      H2293   1.046       .  S
N2290      H2294   1.046       .  S
N2292      H2295   1.046       .  S
N2292      H2296   1.046       .  S
C2301      C2302   1.411       .  A
C2301      C2306   1.405       .  A
C2302      C2303   1.411       .  A
C2302      N2307   1.437       .  S
C2303      C2304   1.406       .  A
C2303      H2308   1.084       .  S
C2304      C2309   1.489       .  S
C2304      C2305   1.410       .  A
C2305      C2306   1.404       .  A
C2305      N2310   1.438       .  S
C2306      H2311   1.084       .  S
N2307      H2327   1.045       .  S
N2307      H2328   1.045       .  S
C2309      C2312   1.401       .  A
C2309      C2316   1.409       .  A
N2310      H2325   1.046       .  S
N2310      H2326   1.046       .  S
C2312      C2313   1.409       .  A
C2312      H2317   1.084       .  S
C2313      C2314   1.421       .  A
C2313      N2318   1.438       .  S
C2314      C2315   1.410       .  A
C2315      C2316   1.408       .  A
C2315      H2319   1.083       .  S
C2316      N2320   1.438       .  S
N2318      H2321   1.046       .  S
N2318      H2322   1.046       .  S
N2320      H2323   1.046       .  S
N2320      H2324   1.046       .  S
C2329      C2330   1.415       .  A
C2329      C2334   1.405       .  A
C2330      C2331   1.404       .  A
C2330      N2335   1.438       .  S
C2331      C2332   1.402       .  A
C2331      H2336   1.084       .  S
C2332      C2337   1.489       .  S
C2332      C2333   1.414       .  A
C2333      C2334   1.406       .  A
C2333      N2338   1.438       .  S
C2334      H2339   1.083       .  S
N2335      H2355   1.046       .  S
N2335      H2356   1.046       .  S
C2337      C2340   1.399       .  A
C2337      C2344   1.412       .  A
N2338      H2353   1.046       .  S
N2338      H2354   1.046       .  S
C2340      C2341   1.402       .  A
C2340      H2345   1.084       .  S
C2341      C2342   1.420       .  A
C2341      N2346   1.433       .  S
C2342      C2343   1.410       .  A
C2343      C2344   1.406       .  A
C2343      H2347   1.075       .  S
C2344      N2348   1.439       .  S
N2346      H2349   1.046       .  S
N2346      H2350   1.045       .  S
N2348      H2351   1.045       .  S
N2348      H2352   1.046       .  S
C2357      C2358   1.415       .  A
C2357      C2362   1.409       .  A
C2358      C2359   1.404       .  A
C2358      N2363   1.438       .  S
C2359      C2360   1.404       .  A
C2359      H2364   1.084       .  S
C2360      C2365   1.492       .  S
C2360      C2361   1.411       .  A
C2361      C2362   1.410       .  A
C2361      N2366   1.437       .  S
C2362      H2367   1.083       .  S
N2363      H2383   1.046       .  S
N2363      H2384   1.046       .  S
C2365      C2368   1.405       .  A
C2365      C2372   1.412       .  A
N2366      H2381   1.046       .  S
N2366      H2382   1.045       .  S
C2368      C2369   1.410       .  A
C2368      H2373   1.083       .  S
C2369      C2370   1.414       .  A
C2369      N2374   1.436       .  S
C2370      C2371   1.403       .  A
C2371      C2372   1.403       .  A
C2371      H2375   1.084       .  S
C2372      N2376   1.438       .  S
N2374      H2377   1.046       .  S
N2374      H2378   1.043       .  S
N2376      H2379   1.046       .  S
N2376      H2380   1.045       .  S
C2385      C2386   1.415       .  A
C2385      C2390   1.404       .  A
C2386      C2387   1.400       .  A
C2386      N2391   1.439       .  S
C2387      C2388   1.400       .  A
C2387      H2392   1.084       .  S
C2388      C2393   1.481       .  S
C2388      C2389   1.411       .  A
C2389      C2390   1.408       .  A
C2389      N2394   1.437       .  S
C2390      H2395   1.084       .  S
N2391      H2411   1.044       .  S
N2391      H2412   1.045       .  S
C2393      C2396   1.401       .  A
C2393      C2400   1.411       .  A
N2394      H2409   1.046       .  S
N2394      H2410   1.046       .  S
C2396      C2397   1.403       .  A
C2396      H2401   1.084       .  S
C2397      C2398   1.415       .  A
C2397      N2402   1.433       .  S
C2398      C2399   1.406       .  A
C2399      C2400   1.404       .  A
C2399      H2403   1.083       .  S
C2400      N2404   1.438       .  S
N2404      H2407   1.046       .  S
N2404      H2408   1.045       .  S
C2413      C2414   1.420       .  A
C2413      C2418   1.409       .  A
C2414      C2415   1.404       .  A
C2414      N2419   1.438       .  S
C2415      C2416   1.400       .  A
C2415      H2420   1.084       .  S
C2416      C2421   1.483       .  S
C2416      C2417   1.408       .  A
C2417      C2418   1.406       .  A
C2417      N2422   1.438       .  S
C2418      H2423   1.083       .  S
N2419      H2439   1.046       .  S
N2419      H2440   1.046       .  S
C2421      C2424   1.398       .  A
C2421      C2428   1.409       .  A
N2422      H2437   1.045       .  S
N2422      H2438   1.046       .  S
C2424      C2425   1.400       .  A
C2424      H2429   1.084       .  S
C2425      C2426   1.420       .  A
C2425      N2430   1.434       .  S
C2426      C2427   1.410       .  A
C2427      C2428   1.406       .  A
C2428      N2432   1.438   1_655  S
N2430      H2433   1.046       .  S
N2430      H2434   1.046       .  S
N2432      H2436   1.046   1_455  S
C2441      C2442   1.410       .  A
C2441      C2446   1.399       .  A
C2442      C2443   1.411       .  A
C2442      N2447   1.437       .  S
C2443      C2444   1.405       .  A
C2443      H2448   1.083       .  S
C2444      C2449   1.486       .  S
C2444      C2445   1.411       .  A
C2445      C2446   1.403       .  A
C2445      N2450   1.438       .  S
C2446      H2451   1.081       .  S
N2447      H2467   1.045       .  S
N2447      H2468   1.046       .  S
C2449      C2452   1.401       .  A
C2449      C2456   1.410       .  A
N2450      H2465   1.046       .  S
N2450      H2466   1.046       .  S
C2452      C2453   1.402       .  A
C2452      H2457   1.084       .  S
C2453      C2454   1.415       .  A
C2453      N2458   1.439       .  S
C2454      C2455   1.408       .  A
C2455      C2456   1.412       .  A
C2455      H2459   1.083       .  S
C2456      N2460   1.437       .  S
N2458      H2461   1.046       .  S
N2458      H2462   1.046       .  S
N2460      H2463   1.046       .  S
N2460      H2464   1.046       .  S
C2469      C2470   1.409       .  A
C2469      C2474   1.407       .  A
C2470      C2471   1.407       .  A
C2471      C2472   1.403       .  A
C2471      H2476   1.084       .  S
C2472      C2477   1.483       .  S
C2472      C2473   1.408       .  A
C2473      C2474   1.404       .  A
C2473      N2478   1.438       .  S
C2474      H2479   1.084       .  S
N2475      H2495   1.045       .  S
N2475      H2496   1.046       .  S
C2477      C2480   1.401       .  A
C2477      C2484   1.407       .  A
N2478      H2493   1.046       .  S
N2478      H2494   1.046       .  S
C2480      C2481   1.405       .  A
C2480      H2485   1.084       .  S
C2481      C2482   1.418       .  A
C2481      N2486   1.438       .  S
C2482      C2483   1.408       .  A
C2483      C2484   1.409       .  A
C2483      H2487   1.083       .  S
C2484      N2488   1.437       .  S
N2486      H2489   1.046       .  S
N2486      H2490   1.046       .  S
N2488      H2491   1.046       .  S
N2488      H2492   1.046       .  S
C2497      C2498   1.414       .  A
C2497      C2502   1.402       .  A
C2498      C2499   1.407       .  A
C2498      N2503   1.438       .  S
C2499      C2500   1.404       .  A
C2499      H2504   1.083       .  S
C2500      C2505   1.492       .  S
C2500      C2501   1.414       .  A
C2501      C2502   1.407       .  A
C2501      N2506   1.438       .  S
C2502      H2507   1.084       .  S
N2503      H2523   1.045       .  S
N2503      H2524   1.046       .  S
C2505      C2508   1.402       .  A
C2505      C2512   1.415       .  A
N2506      H2521   1.046       .  S
N2506      H2522   1.045       .  S
C2508      C2509   1.402       .  A
C2508      H2513   1.083       .  S
C2509      C2510   1.415       .  A
C2509      N2514   1.438       .  S
C2510      C2511   1.403       .  A
C2511      C2512   1.410       .  A
C2511      H2515   1.083       .  S
C2512      N2516   1.437       .  S
N2514      H2517   1.045       .  S
N2514      H2518   1.045       .  S
N2516      H2519   1.046       .  S
N2516      H2520   1.045       .  S
C2525      C2526   1.408       .  A
C2525      C2530   1.401       .  A
C2526      C2527   1.407       .  A
C2526      N2531   1.438       .  S
C2527      C2528   1.405       .  A
C2527      H2532   1.084       .  S
C2528      C2533   1.490       .  S
C2528      C2529   1.413       .  A
C2529      C2530   1.408       .  A
C2529      N2534   1.438       .  S
C2530      H2535   1.083       .  S
N2531      H2551   1.046       .  S
N2531      H2552   1.045       .  S
N2534      H2549   1.046       .  S
N2534      H2550   1.046       .  S
C2536      C2537   1.410       .  A
C2536      H2541   1.084       .  S
C2537      C2538   1.420       .  A
C2537      N2542   1.438       .  S
C2538      C2539   1.408       .  A
C2539      C2540   1.406       .  A
C2539      H2543   1.083       .  S
N2542      H2545   1.046       .  S
N2542      H2546   1.046       .  S
N2544      H2548   1.046       .  S
C2553      C2554   1.416       .  A
C2553      C2558   1.404       .  A
C2554      C2555   1.406       .  A
C2554      N2559   1.438       .  S
C2555      H2560   1.084       .  S
C2556      C2561   1.484   1_545  S
C2557      C2558   1.402       .  A
C2558      H2563   1.084       .  S
N2559      H2579   1.046       .  S
N2559      H2580   1.046       .  S
C2561      C2564   1.399       .  A
C2561      C2568   1.410       .  A
N2562      H2577   1.046       .  S
N2562      H2578   1.046       .  S
C2564      C2565   1.398       .  A
C2564      H2569   1.084       .  S
C2565      C2566   1.419       .  A
C2565      N2570   1.434       .  S
C2566      C2567   1.411       .  A
C2567      C2568   1.406       .  A
C2567      H2571   1.075       .  S
C2568      N2572   1.439       .  S
N2570      H2573   1.045       .  S
N2570      H2574   1.046       .  S
N2572      H2575   1.045       .  S
N2572      H2576   1.046       .  S
