geometry optimzed in LAMMPS
_audit_creation_date              2020-11-30 
_audit_creation_method            'lammps2cif' 
_symmetry_space_group_name_H-M    'P1' 
_symmetry_Int_Tables_number       1 
_symmetry_cell_setting            triclinic 
loop_ 
_symmetry_equiv_pos_as_xyz 
  x,y,z 
_cell_length_a                    36.98022124 
_cell_length_b                    36.47301894853103 
_cell_length_c                    26.566073797943773 
_cell_angle_alpha                 89.51080810630087 
_cell_angle_beta                  89.67359759871253 
_cell_angle_gamma                 89.97812376179651 
loop_ 
_atom_site_label 
_atom_site_type_symbol 
_atom_site_fract_x 
_atom_site_fract_y 
_atom_site_fract_z 
_atom_site_charge 
N1          N  0.44384058  0.00194396  0.00121317    -0.36400
N2          N  0.00012818  0.44416922  0.00002540    -0.57000
N3          N  0.05407967  0.99948174  0.99456498    -0.36400
N4          N  0.99871104  0.05582988  0.00155258    -0.57000
C5          C  0.42359501  0.46851213  0.99460337     0.27200
C6          C  0.42364175  0.03207162  0.01043022     0.27200
C7          C  0.07502162  0.47366828  0.00848441     0.27200
C8          C  0.07475052  0.02911360  0.00454714     0.27200
C9          C  0.46963935  0.42230154  0.97011562     0.35800
C10         C  0.03030209  0.42389728  0.99324997     0.35800
C11         C  0.47112081  0.07923678  0.99736735     0.35800
C12         C  0.02783764  0.07749302  0.99334267     0.35800
C13         C  0.39037370  0.47831903  0.01494492    -0.21700
C14         C  0.38951219  0.02162877  0.02694995    -0.21700
C15         C  0.10857959  0.48599495  0.02404430    -0.21700
C16         C  0.10903574  0.01770566  0.01866344    -0.21700
C17         C  0.48027732  0.38830558  0.95234995    -0.22800
C18         C  0.02114283  0.38831406  0.98049044    -0.22700
C19         C  0.48314567  0.11415272  0.98496403    -0.22800
C20         C  0.01688827  0.11295931  0.98212589    -0.22700
C21         C  0.43381702  0.43233865  0.98212898    -0.18100
C22         C  0.43450657  0.06861920  0.00103679    -0.18100
C23         C  0.06417886  0.06617858  0.99851734    -0.18100
C24         C  0.06590513  0.43639622  0.00157307    -0.18100
H25         H  0.36839189  0.46027972  0.02581399     0.14800
H26         H  0.36710056  0.03934338  0.03671183     0.16800
H27         H  0.13173460  0.46953980  0.03459950     0.14800
H28         H  0.13187061  0.03478272  0.02825712     0.14800
H29         H  0.46307101  0.36555326  0.94225677     0.13100
H30         H  0.03927298  0.36559112  0.97350921     0.13100
H31         H  0.46694484  0.13769994  0.97448465     0.13100
H32         H  0.03387823  0.13651167  0.97431206     0.13100
H33         H  0.46868938  0.00158679  0.98270746     0.26400
H34         H  0.02885210  0.99987734  0.97753577     0.26400
N35         N  0.05638738  0.99874202  0.49810700    -0.36400
N36         N  0.50228290  0.05735126  0.48221588    -0.57000
N37         N  0.44712725  0.00078083  0.49346829    -0.36400
N38         N  0.50001038  0.44190348  0.50410466    -0.57000
C39         C  0.07686165  0.02829665  0.48606314     0.27200
C40         C  0.07699529  0.46956472  0.48310440     0.27200
C41         C  0.42655362  0.03071297  0.48439356     0.27200
C42         C  0.42531078  0.47007905  0.49238916     0.27200
C43         C  0.03019727  0.07609519  0.49914415     0.35800
C44         C  0.47378840  0.07833015  0.49558415     0.35800
C45         C  0.03087969  0.42182221  0.50208352     0.35800
C46         C  0.47016170  0.42128263  0.51191383     0.35800
C47         C  0.11076788  0.01690940  0.47009919    -0.21700
C48         C  0.11000921  0.48036863  0.46293302    -0.21700
C49         C  0.39221492  0.01993261  0.46988612    -0.21700
C50         C  0.39259691  0.48172858  0.47259224    -0.21700
C51         C  0.01896918  0.11084592  0.51291571    -0.22800
C52         C  0.48538834  0.11300244  0.50907319    -0.22700
C53         C  0.02007661  0.38656246  0.51496091    -0.22800
C54         C  0.47983551  0.38593917  0.52597033    -0.22700
C55         C  0.06648436  0.06520868  0.49259887    -0.18100
C56         C  0.06701365  0.43284336  0.49347812    -0.18100
C57         C  0.43452027  0.43314548  0.50231769    -0.18100
C58         C  0.43731216  0.06738364  0.49201671    -0.18100
H59         H  0.13335887  0.03400382  0.45876853     0.14800
H60         H  0.13195472  0.46286985  0.45070273     0.14800
H61         H  0.36950329  0.03741628  0.46064003     0.14800
H62         H  0.37035651  0.46481003  0.46025271     0.14800
H63         H  0.03577820  0.13403939  0.52240773     0.13100
H64         H  0.46888382  0.13596169  0.52072776     0.13100
H65         H  0.03711862  0.36299212  0.52219969     0.13100
H66         H  0.46201656  0.36303802  0.53385817     0.13100
H67         H  0.03162977  0.99918138  0.51680696     0.26400
H68         H  0.47238554  0.00069693  0.51041943     0.26400
O69         O  0.17279138  0.20600335  0.02886951    -0.78300
C70         C  0.24895676  0.25114356  0.13742890     0.82700
O71         O  0.20348978  0.32736046  0.96744846    -0.79400
O72         O  0.32301206  0.29697307  0.02186910    -0.80900
O73         O  0.29376593  0.17365848  0.96852777    -0.80700
O74         O  0.20255162  0.17352029  0.97132844    -0.79300
Zn75       Zn  0.20407790  0.25104043  0.04089299     1.55700
O76         O  0.32343314  0.20623426  0.02533711    -0.80700
Cd77       Cd  0.24764321  0.20495203  0.95582552     1.59700
Cd78       Cd  0.24695848  0.29405450  0.95216009     1.59600
O79         O  0.24604287  0.21793005  0.88018013    -0.80700
O80         O  0.24680980  0.25029150  0.99753576    -1.91200
Cd81       Cd  0.29170547  0.25153871  0.03849740     1.59900
O82         O  0.24383568  0.27880961  0.87794035    -0.80700
O83         O  0.27910134  0.25165787  0.11399021    -0.79300
C84         C  0.17717099  0.32460176  0.99832444     0.83200
C85         C  0.17558153  0.17790295  0.00075353     0.82900
O86         O  0.21895974  0.25073433  0.11400863    -0.78300
C87         C  0.32086831  0.17824046  0.99730969     0.83700
O88         O  0.17421066  0.29716306  0.02825371    -0.78400
C89         C  0.24424701  0.24801640  0.85566605     0.83800
C90         C  0.32036198  0.32276531  0.98943315     0.84100
O91         O  0.29333071  0.32495632  0.96009142    -0.80800
O92         O  0.17653556  0.29307835  0.46536398    -0.78300
C93         C  0.25221909  0.24845919  0.35557504     0.82700
O94         O  0.20585120  0.17165967  0.52576622    -0.79400
O95         O  0.32670352  0.20398527  0.46882544    -0.80900
O96         O  0.29579936  0.32511081  0.52616094    -0.80700
O97         O  0.20541696  0.32532864  0.52317815    -0.79300
Zn98       Zn  0.20756631  0.24824487  0.45284115     1.55700
O99         O  0.32598132  0.29526287  0.46657238    -0.80700
Cd100      Cd  0.25012989  0.29335246  0.53798461     1.59700
Cd101      Cd  0.25052939  0.20395849  0.53965482     1.59600
O102        O  0.24801056  0.27925208  0.61296152    -0.80700
O103        O  0.25015851  0.24857564  0.49545805    -1.91200
Cd104      Cd  0.29505721  0.24915900  0.45366879     1.59900
O105        O  0.24837410  0.21831562  0.61460882    -0.80700
O106        O  0.28238186  0.24853483  0.37842385    -0.79300
C107        C  0.17931583  0.17540001  0.49576632     0.83200
C108        C  0.17880392  0.32110210  0.49354329     0.82900
O109        O  0.22226055  0.24857710  0.37958386    -0.78300
C110        C  0.32275344  0.32227571  0.49633607     0.83700
O111        O  0.17698681  0.20295165  0.46604438    -0.78400
C112        C  0.24740840  0.24900686  0.63718577     0.83800
C113        C  0.32393073  0.17670094  0.49886769     0.84100
O114        O  0.29672695  0.17285553  0.52813063    -0.80800
C115        C  0.24563954  0.28105957  0.77333572    -0.26100
C116        C  0.24335477  0.24760384  0.79977896    -0.14200
C117        C  0.24120237  0.21472260  0.77218413     0.36400
C118        C  0.24240412  0.21592734  0.71946301    -0.25600
C119        C  0.24550601  0.24935492  0.69305871    -0.14800
C120        C  0.24676008  0.28229333  0.72068594     0.37500
N121        N  0.24955419  0.31720345  0.69581430    -0.89100
H122        H  0.24711147  0.30670531  0.79351188     0.18600
H123        H  0.24094298  0.19031061  0.69921834     0.18600
N124        N  0.23771603  0.17993787  0.79719954    -0.88100
H125        H  0.27301913  0.33015929  0.70834631     0.36000
H126        H  0.22735594  0.33313899  0.70659214     0.41100
H127        H  0.25953578  0.16349644  0.78637491     0.40700
H128        H  0.21395303  0.16749079  0.78477331     0.35600
C129        C  0.28043113  0.23859396  0.21831731    -0.26100
C130        C  0.24917361  0.25059712  0.19324728    -0.14200
C131        C  0.21899564  0.26183468  0.22199978     0.36400
C132        C  0.22052511  0.26060559  0.27470107    -0.25600
C133        C  0.25179056  0.24865295  0.29976701    -0.14800
C134        C  0.28200137  0.23742722  0.27099377     0.37500
N135        N  0.31414721  0.22412553  0.29486232    -0.89100
H136        H  0.30381169  0.22957229  0.19697423     0.18600
H137        H  0.19717177  0.26967097  0.29605744     0.18600
N138        N  0.18699107  0.27537543  0.19806167    -0.88100
H139        H  0.33579778  0.24057426  0.28307004     0.36000
H140        H  0.31897559  0.19743868  0.28241128     0.41100
H141        H  0.18232907  0.30207544  0.21057785     0.40700
H142        H  0.16522193  0.25905791  0.20976373     0.35600
C143        C  0.09783447  0.37941165  0.45395139    -0.26100
C144        C  0.09579437  0.40435520  0.49368867    -0.14200
C145        C  0.12081705  0.40169977  0.53344186     0.36400
C146        C  0.14758185  0.37462983  0.53236913    -0.25600
C147        C  0.14987756  0.34946899  0.49257234    -0.14800
C148        C  0.12448757  0.35199873  0.45305518     0.37500
N149        N  0.12581511  0.32720369  0.41157153    -0.89100
H150        H  0.07858802  0.38127737  0.42341954     0.18600
H151        H  0.16642648  0.37304992  0.56339932     0.18600
N152        N  0.11911460  0.42561961  0.57589837    -0.88100
H153        H  0.12898751  0.34259947  0.37846170     0.36000
H154        H  0.10098889  0.31357375  0.40985123     0.41100
H155        H  0.09345759  0.42324307  0.59233810     0.40700
H156        H  0.12256774  0.45261228  0.56333621     0.35600
C157        C  0.35527131  0.37273972  0.53988153    -0.26100
C158        C  0.35115355  0.35102010  0.49676096    -0.14200
C159        C  0.37430748  0.35719549  0.45497131     0.36400
C160        C  0.40132575  0.38407313  0.45749150    -0.25600
C161        C  0.40546721  0.40523112  0.50075634    -0.14800
C162        C  0.38220539  0.39972516  0.54209051     0.37500
N163        N  0.38618413  0.42131335  0.58648987    -0.89100
H164        H  0.33783973  0.36851048  0.57233702     0.18600
H165        H  0.41905948  0.38862578  0.42542160     0.18600
N166        N  0.37005637  0.33689304  0.40947297    -0.88100
H167        H  0.39085083  0.40351054  0.61681819     0.36000
H168        H  0.36174232  0.43491472  0.59308641     0.41100
H169        H  0.39445095  0.32350567  0.40178632     0.40700
H170        H  0.36513630  0.35551896  0.38016192     0.35600
C171        C  0.38544432  0.09704614  0.53597807    -0.26100
C172        C  0.40881765  0.09591007  0.49434199    -0.14200
C173        C  0.40448895  0.12121462  0.45473107     0.36400
C174        C  0.37692035  0.14743786  0.45725869    -0.25600
C175        C  0.35309716  0.14871108  0.49872578    -0.14800
C176        C  0.35768211  0.12321290  0.53861568     0.37500
N177        N  0.33467850  0.12399551  0.58215180    -0.89100
H178        H  0.38881571  0.07750441  0.56656321     0.18600
H179        H  0.37388376  0.16650942  0.42607348     0.18600
N180        N  0.42776112  0.11988314  0.41150079    -0.88100
H181        H  0.35089870  0.12784244  0.61378185     0.36000
H182        H  0.32212610  0.09841537  0.58574195     0.41100
H183        H  0.44064935  0.14528070  0.40781964     0.40700
H184        H  0.41168595  0.11605351  0.37972903     0.35600
C185        C  0.13015016  0.14178938  0.45144893    -0.26100
C186        C  0.15043908  0.14709786  0.49543349    -0.14200
C187        C  0.14264338  0.12533653  0.53845713     0.36400
C188        C  0.11515016  0.09890270  0.53667851    -0.25600
C189        C  0.09513924  0.09370606  0.49276509    -0.14800
C190        C  0.10285714  0.11522656  0.44966334     0.37500
N191        N  0.08375582  0.11016804  0.40348771    -0.89100
H192        H  0.13586342  0.15799410  0.41796316     0.18600
H193        H  0.10925296  0.08241952  0.56986116     0.18600
N194        N  0.16196306  0.13047565  0.58444082    -0.88100
H195        H  0.05624828  0.11473339  0.41015359     0.36000
H196        H  0.08711061  0.08294978  0.39233128     0.41100
H197        H  0.17410654  0.10556050  0.59432156     0.40700
H198        H  0.14327163  0.13712057  0.61260198     0.35600
C199        C  0.12884318  0.35962189  0.04325231    -0.26100
C200        C  0.14938944  0.35402637  0.99925395    -0.14200
C201        C  0.14294328  0.37666043  0.95668920     0.36400
C202        C  0.11612690  0.40378877  0.95870079    -0.25600
C203        C  0.09543088  0.40881833  0.00232457    -0.14800
C204        C  0.10214703  0.38682703  0.04519816     0.37500
N205        N  0.08234674  0.39178216  0.09113354    -0.89100
H206        H  0.13365707  0.34291116  0.07646609     0.18600
H207        H  0.11096025  0.42061849  0.92568732     0.18600
N208        N  0.16276469  0.37158878  0.91078156    -0.88100
H209        H  0.05489206  0.38767305  0.08398512     0.36000
H210        H  0.08587627  0.41885983  0.10273961     0.41100
H211        H  0.17574853  0.39625361  0.90170132     0.40700
H212        H  0.14430701  0.36588661  0.88222558     0.35600
C213        C  0.37934192  0.40302779  0.94579510    -0.26100
C214        C  0.40562993  0.40341161  0.98348431    -0.14200
C215        C  0.40390832  0.37738835  0.02299971     0.36400
C216        C  0.37622626  0.35133419  0.02378540    -0.25600
C217        C  0.34953583  0.35079516  0.98620913    -0.14800
C218        C  0.35132966  0.37711529  0.94675784     0.37500
N219        N  0.32496621  0.37775974  0.90746444    -0.89100
H220        H  0.38045520  0.42318957  0.91560843     0.18600
H221        H  0.37538932  0.33172578  0.05463456     0.18600
N222        N  0.42926704  0.37751334  0.06358884    -0.88100
H223        H  0.33844670  0.37461582  0.87306620     0.36000
H224        H  0.31254953  0.40352302  0.90735201     0.41100
H225        H  0.42858440  0.40331022  0.08042753     0.40700
H226        H  0.45520242  0.37314469  0.04910030     0.35600
C227        C  0.40184501  0.12107117  0.03858986    -0.26100
C228        C  0.40605744  0.09733034  0.99785918    -0.14200
C229        C  0.38243606  0.10042334  0.95622825     0.36400
C230        C  0.35467854  0.12666160  0.95721977    -0.25600
C231        C  0.35030802  0.15047377  0.99816867    -0.14800
C232        C  0.37439535  0.14752537  0.03916532     0.37500
N233        N  0.37066784  0.17068490  0.08217079    -0.89100
H234        H  0.41977159  0.11867981  0.07059888     0.18600
H235        H  0.33670482  0.12872534  0.92524087     0.18600
N236        N  0.38574111  0.07764112  0.91248050    -0.88100
H237        H  0.39489345  0.18503331  0.08666248     0.36000
H238        H  0.36677787  0.15400641  0.11394650     0.41100
H239        H  0.40765274  0.05972689  0.91514995     0.40700
H240        H  0.39119889  0.09482453  0.88166281     0.35600
C241        C  0.09891177  0.11464845  0.04295182    -0.26100
C242        C  0.09276062  0.09483330  0.99882770    -0.14200
C243        C  0.11374724  0.10245378  0.95551539     0.36400
C244        C  0.14044422  0.12955548  0.95709546    -0.25600
C245        C  0.14673314  0.14962164  0.00118018    -0.14800
C246        C  0.12575839  0.14186459  0.04456007     0.37500
N247        N  0.13228693  0.16072775  0.09068145    -0.89100
H248        H  0.08298065  0.10870686  0.07640125     0.18600
H249        H  0.15615673  0.13519686  0.92334911     0.18600
N250        N  0.10817794  0.08330035  0.90935493    -0.88100
H251        H  0.13886786  0.14122867  0.11822440     0.36000
H252        H  0.10825225  0.17355751  0.10166262     0.41100
H253        H  0.08130221  0.08707570  0.89845370     0.40700
H254        H  0.11241643  0.05533753  0.91589935     0.35600
N255        N  0.44338286  0.49901004  0.98522302    -0.36400
N256        N  0.99847001  0.94277754  0.99779381    -0.57000
N257        N  0.05362627  0.50272908  0.99752833    -0.36400
N258        N  0.99646737  0.55722714  0.99706958    -0.57000
C259        C  0.42300102  0.97241208  0.01194982     0.27200
C260        C  0.42318981  0.52806416  0.99953980     0.27200
C261        C  0.07457847  0.96936050  0.00301023     0.27200
C262        C  0.07305304  0.53339569  0.00644742     0.27200
C263        C  0.46893108  0.92423493  0.99580102     0.35800
C264        C  0.02762073  0.92172286  0.98784477     0.35800
C265        C  0.46889980  0.57702979  0.98548615     0.35800
C266        C  0.02502975  0.57978180  0.98959452     0.35800
C267        C  0.38915110  0.98391765  0.02811210    -0.21700
C268        C  0.39008253  0.51595092  0.01791154    -0.21700
C269        C  0.10891336  0.97999895  0.01777777    -0.21700
C270        C  0.10734210  0.52368372  0.02277230    -0.21700
C271        C  0.47953094  0.88981620  0.97959383    -0.22800
C272        C  0.01678924  0.88684067  0.97407417    -0.22700
C273        C  0.47945023  0.61279240  0.97519329    -0.22800
C274        C  0.01317170  0.61464852  0.97672483    -0.22700
C275        C  0.43284624  0.93550785  0.00364845    -0.18100
C276        C  0.43277731  0.56528466  0.99259448    -0.18100
C277        C  0.06155209  0.56982393  0.99704476    -0.18100
C278        C  0.06382915  0.93262719  0.99506949    -0.18100
H279        H  0.36635103  0.96690314  0.03881031     0.14800
H280        H  0.36785339  0.53254540  0.03145874     0.16800
H281        H  0.13164711  0.96242944  0.02659808     0.14800
H282        H  0.12938298  0.54186126  0.03215747     0.14800
H283        H  0.46227722  0.86738089  0.96841986     0.13100
H284        H  0.03386770  0.86373511  0.96476869     0.13100
H285        H  0.46221837  0.63643558  0.96946569     0.13100
H286        H  0.02953278  0.63868949  0.96914557     0.13100
H287        H  0.46726885  0.50022619  0.96447694     0.26400
H288        H  0.02894956  0.50166473  0.97929394     0.26400
N289        N  0.05721035  0.49953056  0.49481188    -0.36400
N290        N  0.50183717  0.55458757  0.50348269    -0.57000
N291        N  0.44568815  0.49949736  0.50420379    -0.36400
N292        N  0.50188443  0.94436136  0.48405242    -0.57000
C293        C  0.07718959  0.52931495  0.48214341     0.27200
C294        C  0.07676644  0.96864720  0.48954927     0.27200
C295        C  0.42636969  0.52975226  0.49199856     0.27200
C296        C  0.42632871  0.97105989  0.48457973     0.27200
C297        C  0.03217893  0.57709860  0.50487734     0.35800
C298        C  0.47289534  0.57639669  0.51153456     0.35800
C299        C  0.03014127  0.92144757  0.50858907     0.35800
C300        C  0.47325327  0.92332940  0.49719744     0.35800
C301        C  0.11009273  0.51809786  0.46217347    -0.21700
C302        C  0.11066179  0.97920180  0.47205763    -0.21700
C303        C  0.39329427  0.51945179  0.47225978    -0.21700
C304        C  0.39209110  0.98222877  0.46993042    -0.21700
C305        C  0.02245708  0.61139472  0.52259149    -0.22800
C306        C  0.48402859  0.61086384  0.52658196    -0.22700
C307        C  0.01903263  0.88717808  0.52550145    -0.22800
C308        C  0.48471511  0.88876704  0.51213760    -0.22700
C309        C  0.06771588  0.56617527  0.49212184    -0.18100
C310        C  0.06639984  0.93216037  0.50072698    -0.18100
C311        C  0.43682992  0.93423257  0.49252470    -0.18100
C312        C  0.43681773  0.56626993  0.50167557    -0.18100
H313        H  0.13216857  0.53530995  0.44927761     0.14800
H314        H  0.13322846  0.96158791  0.46265640     0.14800
H315        H  0.37171110  0.53727107  0.45958734     0.14800
H316        H  0.36925985  0.96500985  0.46079267     0.14800
H317        H  0.04021248  0.63401541  0.53135466     0.13100
H318        H  0.46720404  0.63434670  0.53495117     0.13100
H319        H  0.03594336  0.86459055  0.53767278     0.13100
H320        H  0.46810980  0.86585261  0.52418419     0.13100
H321        H  0.03357283  0.49959206  0.51612952     0.26400
H322        H  0.46933591  0.49892863  0.52515371     0.26400
O323        O  0.17442761  0.70596975  0.02827673    -0.78300
C324        C  0.24872355  0.75342352  0.13744770     0.82700
O325        O  0.20355452  0.82629133  0.96505877    -0.79400
O326        O  0.32427400  0.79650239  0.02564290    -0.80900
O327        O  0.29293895  0.67309712  0.96968492    -0.80700
O328        O  0.20175714  0.67518988  0.96700626    -0.79300
Zn329      Zn  0.20519638  0.75098146  0.04017487     1.55700
O330        O  0.32364613  0.70405098  0.02724959    -0.80700
Cd331      Cd  0.24824902  0.70583679  0.95463555     1.59700
Cd332      Cd  0.24922986  0.79527748  0.95362003     1.59600
O333        O  0.24965066  0.72040735  0.87926130    -0.80700
O334        O  0.24820872  0.75057578  0.99749933    -1.91200
Cd335      Cd  0.29277395  0.75056555  0.03935875     1.59900
O336        O  0.25024793  0.78145885  0.87855266    -0.80700
O337        O  0.27891243  0.75217721  0.11421243    -0.79300
C338        C  0.17649983  0.82241697  0.99442845     0.83200
C339        C  0.17562838  0.67899454  0.99808776     0.82900
O340        O  0.21885826  0.75296133  0.11373176    -0.78300
C341        C  0.32001994  0.67626753  0.99892317     0.83700
O342        O  0.17411779  0.79526867  0.02482382    -0.78400
C343        C  0.25022851  0.75094451  0.85555926     0.83800
C344        C  0.32062131  0.82460532  0.99725848     0.84100
O345        O  0.29355089  0.82808105  0.96815709    -0.80800
O346        O  0.17624930  0.79355249  0.46847512    -0.78300
C347        C  0.25250269  0.75319034  0.35597891     0.82700
O348        O  0.20716752  0.67367212  0.52574929    -0.79400
O349        O  0.32666353  0.70320533  0.46806221    -0.80900
O350        O  0.29788131  0.82722609  0.52348702    -0.80700
O351        O  0.20670266  0.82722612  0.52322625    -0.79300
Zn352      Zn  0.20834777  0.75012502  0.45341029     1.55700
O353        O  0.32798014  0.79426840  0.46718730    -0.80700
Cd354      Cd  0.25196322  0.79592592  0.53745083     1.59700
Cd355      Cd  0.25120469  0.70651407  0.54065166     1.59600
O356        O  0.25068309  0.78297476  0.61319892    -0.80700
O357        O  0.25112422  0.75054047  0.49584187    -1.91200
Cd358      Cd  0.29579957  0.74940490  0.45385700     1.59900
O359        O  0.24876243  0.72194570  0.61510010    -0.80700
O360        O  0.28257927  0.75120069  0.37889754    -0.79300
C361        C  0.18134623  0.67627582  0.49438779     0.83200
C362        C  0.17903603  0.82193111  0.49584728     0.82900
O363        O  0.22257375  0.75329794  0.38005372    -0.78300
C364        C  0.32525504  0.82244795  0.49483570     0.83700
O365        O  0.17897682  0.70372056  0.46446607    -0.78400
C366        C  0.24910188  0.75273878  0.63745883     0.83800
C367        C  0.32411427  0.67717697  0.50021882     0.84100
O368        O  0.29741929  0.67515003  0.53067657    -0.80800
C369        C  0.23794928  0.78254505  0.77384677    -0.26100
C370        C  0.25027296  0.75119690  0.79973666    -0.14200
C371        C  0.26192712  0.72061553  0.77183743     0.36400
C372        C  0.26078484  0.72175395  0.71922059    -0.25600
C373        C  0.24849746  0.75299249  0.69323819    -0.14800
C374        C  0.23662809  0.78372491  0.72097485     0.37500
N375        N  0.22275840  0.81574119  0.69565757    -0.89100
H376        H  0.22860737  0.80604669  0.79494678     0.18600
H377        H  0.27029774  0.69809364  0.69858519     0.18600
N378        N  0.27582724  0.68856453  0.79655577    -0.88100
H379        H  0.21573089  0.83598478  0.72158406     0.36000
H380        H  0.19883952  0.80817236  0.67769971     0.41100
H381        H  0.30224803  0.68421714  0.78369742     0.40700
H382        H  0.26012388  0.66613370  0.78587203     0.35600
C383        C  0.28214333  0.75131060  0.21844226    -0.26100
C384        C  0.24897925  0.75514467  0.19334479    -0.14200
C385        C  0.21723228  0.76038254  0.22224187     0.36400
C386        C  0.21910837  0.76013080  0.27498597    -0.25600
C387        C  0.25216513  0.75506682  0.30004836    -0.14800
C388        C  0.28409630  0.75134543  0.27102163     0.37500
N389        N  0.31869595  0.74716383  0.29441037    -0.89100
H390        H  0.30701165  0.74777956  0.19726565     0.18600
H391        H  0.19432951  0.76378445  0.29632445     0.18600
N392        N  0.18298461  0.76614127  0.19851802    -0.88100
H393        H  0.33541190  0.76850329  0.28180552     0.36000
H394        H  0.33000132  0.72241101  0.28248397     0.41100
H395        H  0.17278784  0.79140553  0.21034670     0.40700
H396        H  0.16526225  0.74563751  0.21105806     0.35600
C397        C  0.09622720  0.87873011  0.46066603    -0.26100
C398        C  0.09472073  0.90336082  0.50079254    -0.14200
C399        C  0.12039720  0.90070755  0.53967959     0.36400
C400        C  0.14745421  0.87403878  0.53718662    -0.25600
C401        C  0.14945188  0.84945199  0.49670745    -0.14800
C402        C  0.12325410  0.85181913  0.45824122     0.37500
N403        N  0.12429277  0.82757523  0.41612388    -0.89100
H404        H  0.07649590  0.88070741  0.43074227     0.18600
H405        H  0.16689930  0.87242662  0.56748706     0.18600
N406        N  0.11921889  0.92432367  0.58248269    -0.88100
H407        H  0.12659300  0.84344208  0.38329439     0.36000
H408        H  0.09967729  0.81351990  0.41490496     0.41100
H409        H  0.09384229  0.92164173  0.59966695     0.40700
H410        H  0.12228514  0.95143011  0.57022779     0.35600
C411        C  0.35661445  0.87587379  0.53317988    -0.26100
C412        C  0.35460623  0.85038771  0.49378315    -0.14200
C413        C  0.38029435  0.85261152  0.45390625     0.36400
C414        C  0.40664249  0.88034866  0.45428388    -0.25600
C415        C  0.40840705  0.90546273  0.49371253    -0.14800
C416        C  0.38333605  0.90313058  0.53350822     0.37500
N417        N  0.38517409  0.92831719  0.57447509    -0.89100
H418        H  0.33750954  0.87457287  0.56421780     0.18600
H419        H  0.42610136  0.88239932  0.42372647     0.18600
N420        N  0.37931098  0.82738790  0.41261903    -0.88100
H421        H  0.38845320  0.91317627  0.60773163     0.36000
H422        H  0.36046107  0.94216015  0.57668812     0.41100
H423        H  0.38824825  0.80199032  0.42620183     0.40700
H424        H  0.39779113  0.83513037  0.38455194     0.35600
C425        C  0.38267776  0.59567509  0.54013403    -0.26100
C426        C  0.40843480  0.59512253  0.50132431    -0.14200
C427        C  0.40669647  0.62147035  0.46252876     0.36400
C428        C  0.37918669  0.64796196  0.46300502    -0.25600
C429        C  0.35300158  0.64866908  0.50173678    -0.14800
C430        C  0.35515098  0.62216513  0.54089911     0.37500
N431        N  0.32982448  0.62210621  0.58189233    -0.89100
H432        H  0.38405452  0.57542748  0.57016926     0.18600
H433        H  0.37825543  0.66785214  0.43251829     0.18600
N434        N  0.43262376  0.62106961  0.42228601    -0.88100
H435        H  0.34426209  0.62499651  0.61535428     0.36000
H436        H  0.31691714  0.59660586  0.58291046     0.41100
H437        H  0.44581359  0.64642105  0.42152842     0.40700
H438        H  0.41862899  0.61828115  0.38844877     0.35600
C439        C  0.12612441  0.64855653  0.45588803    -0.26100
C440        C  0.15313997  0.64705105  0.49304030    -0.14200
C441        C  0.15229678  0.61783532  0.52852783     0.36400
C442        C  0.12413877  0.59214248  0.52746186    -0.25600
C443        C  0.09692960  0.59427703  0.49112548    -0.14800
C444        C  0.09843785  0.62239286  0.45426259     0.37500
N445        N  0.07287171  0.62443824  0.41399668    -0.89100
H446        H  0.12648944  0.67012600  0.42759644     0.18600
H447        H  0.12351764  0.57023544  0.55529324     0.18600
N448        N  0.17980004  0.61397069  0.56595418    -0.88100
H449        H  0.04701574  0.62830927  0.42896576     0.36000
H450        H  0.07330099  0.59952394  0.39483289     0.41100
H451        H  0.19200078  0.58832219  0.56150511     0.40700
H452        H  0.16739409  0.61444968  0.60140590     0.35600
C453        C  0.12446714  0.85383588  0.03579763    -0.26100
C454        C  0.14727299  0.85028740  0.99357081    -0.14200
C455        C  0.14196418  0.87375700  0.95156983     0.36400
C456        C  0.11455242  0.90028442  0.95283487    -0.25600
C457        C  0.09217913  0.90384813  0.99515624    -0.14800
C458        C  0.09723065  0.88041861  0.03706320     0.37500
N459        N  0.07558094  0.88362126  0.08170282    -0.89100
H460        H  0.12818899  0.83629925  0.06849354     0.18600
H461        H  0.11064441  0.91820009  0.92055584     0.18600
N462        N  0.16387455  0.87046227  0.90718994    -0.88100
H463        H  0.04853827  0.87919722  0.07236934     0.36000
H464        H  0.07812951  0.91033814  0.09518300     0.41100
H465        H  0.17660647  0.89564702  0.90053209     0.40700
H466        H  0.14685827  0.86516588  0.87680834     0.35600
C467        C  0.37940580  0.90724931  0.96287641    -0.26100
C468        C  0.40380381  0.90740052  0.00300318    -0.14200
C469        C  0.39984337  0.88140973  0.04227341     0.36400
C470        C  0.37275252  0.85478287  0.03946256    -0.25600
C471        C  0.34859798  0.85389858  0.99870671    -0.14800
C472        C  0.35169885  0.88106259  0.96055681     0.37500
N473        N  0.32712303  0.88210607  0.91909372    -0.89100
H474        H  0.38193945  0.92761564  0.93310855     0.18600
H475        H  0.37036201  0.83491886  0.06985883     0.18600
N476        N  0.42229523  0.88209499  0.08604499    -0.88100
H477        H  0.34213069  0.87986309  0.88579047     0.36000
H478        H  0.31433099  0.90768259  0.91888762     0.41100
H479        H  0.41997498  0.90793587  0.10249843     0.40700
H480        H  0.44917417  0.87819404  0.07510283     0.35600
C481        C  0.40133637  0.61708484  0.03469339    -0.26100
C482        C  0.40341245  0.59325414  0.99364426    -0.14200
C483        C  0.37732692  0.59609017  0.95491760     0.36400
C484        C  0.35001044  0.62261728  0.95847092    -0.25600
C485        C  0.34833114  0.64718293  0.99893654    -0.14800
C486        C  0.37424394  0.64395497  0.03768419     0.37500
N487        N  0.37301180  0.66749033  0.08054997    -0.89100
H488        H  0.42097410  0.61478778  0.06469680     0.18600
H489        H  0.33044750  0.62455469  0.92834959     0.18600
N490        N  0.37778466  0.57299104  0.91125150    -0.88100
H491        H  0.39764423  0.68145677  0.08250836     0.36000
H492        H  0.37045662  0.65109195  0.11285130     0.41100
H493        H  0.39978407  0.55511286  0.91120725     0.40700
H494        H  0.38117438  0.58994774  0.87964923     0.35600
C495        C  0.09507182  0.62020960  0.03913689    -0.26100
C496        C  0.08954834  0.59907877  0.99609114    -0.14200
C497        C  0.11184465  0.60466284  0.95347986     0.36400
C498        C  0.13970337  0.63059029  0.95503777    -0.25600
C499        C  0.14573842  0.65166355  0.99833344    -0.14800
C500        C  0.12288646  0.64638980  0.04067894     0.37500
N501        N  0.12831166  0.66680800  0.08582215    -0.89100
H502        H  0.07808393  0.61587774  0.07202967     0.18600
H503        H  0.15653292  0.63446511  0.92189613     0.18600
N504        N  0.10651105  0.58450390  0.90807691    -0.88100
H505        H  0.13296775  0.64821845  0.11525933     0.36000
H506        H  0.10444622  0.68104098  0.09384192     0.41100
H507        H  0.08006607  0.58912561  0.89581896     0.40700
H508        H  0.10940214  0.55656651  0.91614124     0.35600
N509        N  0.94335567  0.99905313  0.99952639    -0.36400
N510        N  0.49887688  0.44298386  0.98031825    -0.57000
N511        N  0.55376798  0.99983968  0.01139620    -0.36400
N512        N  0.49938247  0.05742660  0.00936103    -0.57000
C513        C  0.92352258  0.46806608  0.00474956     0.27200
C514        C  0.92294591  0.02870840  0.01027231     0.27200
C515        C  0.57421749  0.46888052  0.99102428     0.27200
C516        C  0.57389393  0.02914085  0.02445647     0.27200
C517        C  0.97184833  0.42175302  0.99104056     0.35800
C518        C  0.52808761  0.42225493  0.96954566     0.35800
C519        C  0.96927052  0.07724322  0.99480897     0.35800
C520        C  0.52939909  0.07818823  0.00396839     0.35800
C521        C  0.88908039  0.47789437  0.02055080    -0.21700
C522        C  0.88892844  0.01745267  0.02638496    -0.21700
C523        C  0.60771512  0.47914208  0.00938071    -0.21700
C524        C  0.60665842  0.01726800  0.04385737    -0.21700
C525        C  0.98406160  0.38697915  0.97900584    -0.22800
C526        C  0.51743087  0.38822253  0.95220508    -0.22700
C527        C  0.97975664  0.11278221  0.98290987    -0.22800
C528        C  0.52013812  0.11350198  0.98918170    -0.22700
C529        C  0.93518118  0.43162960  0.99711379    -0.18100
C530        C  0.93309079  0.06561284  0.00171901    -0.18100
C531        C  0.56486225  0.06616614  0.01462670    -0.18100
C532        C  0.56396237  0.43242723  0.98028193    -0.18100
H533        H  0.86701376  0.45979217  0.03087007     0.14800
H534        H  0.86625439  0.03462467  0.03678625     0.16800
H535        H  0.63002228  0.46136942  0.01945640     0.14800
H536        H  0.62885441  0.03408750  0.05658867     0.14800
H537        H  0.96792644  0.36303698  0.97078208     0.13100
H538        H  0.53462265  0.36544902  0.94183184     0.13100
H539        H  0.96248051  0.13620286  0.97583982     0.13100
H540        H  0.53811858  0.13645665  0.98245355     0.13100
H541        H  0.96803945  0.99948420  0.98065976     0.26400
H542        H  0.53036270  0.00069645  0.98997438     0.26400
N543        N  0.55681647  0.00084951  0.47776141    -0.36400
N544        N  0.00135556  0.05474746  0.48900393    -0.57000
N545        N  0.94628994  0.99801733  0.49106361    -0.36400
N546        N  0.00167565  0.44353287  0.49520218    -0.57000
C547        C  0.57654911  0.03056597  0.46423267     0.27200
C548        C  0.57581972  0.46683766  0.49643810     0.27200
C549        C  0.92673971  0.02762966  0.47694389     0.27200
C550        C  0.92600866  0.47107686  0.49229715     0.27200
C551        C  0.53203512  0.07837300  0.48782354     0.35800
C552        C  0.97176466  0.07566830  0.49678328     0.35800
C553        C  0.52863935  0.41990087  0.51338422     0.35800
C554        C  0.97237164  0.42229996  0.50407170     0.35800
C555        C  0.60889173  0.01939672  0.44262781    -0.21700
C556        C  0.60946941  0.47727630  0.47800228    -0.21700
C557        C  0.89453371  0.01636792  0.45556066    -0.21700
C558        C  0.89197293  0.48279281  0.47748879    -0.21700
C559        C  0.52238256  0.11301474  0.50421936    -0.22800
C560        C  0.98184204  0.11052223  0.51170993    -0.22700
C561        C  0.51697132  0.38506786  0.52691034    -0.22800
C562        C  0.98295482  0.38683485  0.51602290    -0.22700
C563        C  0.56754369  0.06718975  0.47568213    -0.18100
C564        C  0.56506026  0.43021492  0.50590949    -0.18100
C565        C  0.93619545  0.43396363  0.49856942    -0.18100
C566        C  0.93602840  0.06439761  0.48682368    -0.18100
H567        H  0.63072114  0.03667490  0.42907454     0.14800
H568        H  0.63143668  0.45953696  0.46652881     0.14800
H569        H  0.87296551  0.03357623  0.44135146     0.14800
H570        H  0.86916998  0.46592951  0.46709460     0.14800
H571        H  0.54008599  0.13598847  0.51137851     0.13100
H572        H  0.96432103  0.13347785  0.52006509     0.13100
H573        H  0.53348437  0.36138741  0.53572327     0.13100
H574        H  0.96572735  0.36355399  0.52436822     0.13100
H575        H  0.53406359  0.00099202  0.50087298     0.26400
H576        H  0.96913335  0.99847314  0.51369068     0.26400
O577        O  0.67487745  0.20564366  0.03346594    -0.78300
C578        C  0.74885969  0.25517861  0.13776220     0.82700
O579        O  0.70405642  0.32448037  0.96045050    -0.79400
O580        O  0.82485425  0.29443603  0.02388870    -0.80900
O581        O  0.79263612  0.17127638  0.97231463    -0.80700
O582        O  0.70237680  0.17282300  0.97434118    -0.79300
Zn583      Zn  0.70498031  0.25177236  0.04061319     1.55700
O584        O  0.82293541  0.20332781  0.02903641    -0.80700
Cd585      Cd  0.74775599  0.20353912  0.95743214     1.59700
Cd586      Cd  0.74997570  0.29287710  0.95195659     1.59600
O587        O  0.74845991  0.21536356  0.88118738    -0.80700
O588        O  0.74799315  0.24947368  0.99798221    -1.91200
Cd589      Cd  0.79241284  0.24982010  0.03980579     1.59900
O590        O  0.75204266  0.27620291  0.87822886    -0.80700
O591        O  0.77895630  0.25239140  0.11460703    -0.79300
C592        C  0.67646783  0.32159724  0.98915814     0.83200
C593        C  0.67669274  0.17721481  0.00593830     0.82900
O594        O  0.71901310  0.25592438  0.11396137    -0.78300
C595        C  0.81959693  0.17516535  0.00149132     0.83700
O596        O  0.67367756  0.29547493  0.02126293    -0.78400
C597        C  0.75086531  0.24528885  0.85630195     0.83800
C598        C  0.82226008  0.32155915  0.99361803     0.84100
O599        O  0.79525838  0.32515769  0.96435424    -0.80800
O600        O  0.67711223  0.29347852  0.47034005    -0.78300
C601        C  0.75330463  0.25444489  0.35630313     0.82700
O602        O  0.70613133  0.17251728  0.52419393    -0.79400
O603        O  0.82734850  0.20331268  0.46581148    -0.80900
O604        O  0.79690065  0.32656457  0.52547376    -0.80700
O605        O  0.70552890  0.32453283  0.52979312    -0.79300
Zn606      Zn  0.70918981  0.25036212  0.45371231     1.55700
O607        O  0.82815733  0.29494464  0.46867827    -0.80700
Cd608      Cd  0.75210726  0.29370499  0.53984607     1.59700
Cd609      Cd  0.75161568  0.20387914  0.53865492     1.59600
O610        O  0.75402511  0.27799613  0.61434159    -0.80700
O611        O  0.75175261  0.24940235  0.49617766    -1.91200
Cd612      Cd  0.79651999  0.24979040  0.45406533     1.59900
O613        O  0.75257441  0.21700295  0.61426334    -0.80700
O614        O  0.78343215  0.25240576  0.37906121    -0.79300
C615        C  0.68079701  0.17638087  0.49221540     0.83200
C616        C  0.67863268  0.32038248  0.50053751     0.82900
O617        O  0.72345038  0.25428568  0.38053717    -0.78300
C618        C  0.82440654  0.32281601  0.49677123     0.83700
O619        O  0.67951886  0.20427280  0.46301904    -0.78400
C620        C  0.75386361  0.24735846  0.63769890     0.83800
C621        C  0.82376041  0.17527426  0.49436246     0.84100
O622        O  0.79658821  0.17171286  0.52373872    -0.80800
C623        C  0.75939581  0.27767287  0.77430727    -0.26100
C624        C  0.75253808  0.24469575  0.80039417    -0.14200
C625        C  0.74743381  0.21232580  0.77243941     0.36400
C626        C  0.74859565  0.21376687  0.71967134    -0.25600
C627        C  0.75464605  0.24694447  0.69363300    -0.14800
C628        C  0.76060289  0.27912764  0.72168023     0.37500
N629        N  0.76809415  0.31348784  0.69722465    -0.89100
H630        H  0.76391650  0.30282604  0.79474988     0.18600
H631        H  0.74413271  0.18867140  0.69907787     0.18600
N632        N  0.74057015  0.17792955  0.79710661    -0.88100
H633        H  0.79315100  0.32289979  0.70978281     0.36000
H634        H  0.74834276  0.33232311  0.70835622     0.41100
H635        H  0.76070200  0.15946264  0.78613150     0.40700
H636        H  0.71573134  0.16797903  0.78450429     0.35600
C637        C  0.78267601  0.25656264  0.21853490    -0.26100
C638        C  0.74919585  0.25702259  0.19367372    -0.14200
C639        C  0.71718662  0.25840094  0.22286883     0.36400
C640        C  0.71926875  0.25809279  0.27556569    -0.25600
C641        C  0.75273414  0.25656788  0.30038656    -0.14800
C642        C  0.78478919  0.25643086  0.27113218     0.37500
N643        N  0.81969631  0.25595895  0.29429197    -0.89100
H644        H  0.80770697  0.25596377  0.19715530     0.18600
H645        H  0.69428988  0.25867621  0.29705662     0.18600
N646        N  0.68239138  0.25982865  0.19952195    -0.88100
H647        H  0.83399942  0.27907311  0.28183855     0.36000
H648        H  0.83355142  0.23266174  0.28201180     0.41100
H649        H  0.66921515  0.28356901  0.21163608     0.40700
H650        H  0.66739611  0.23719759  0.21206185     0.35600
C651        C  0.59613585  0.37775857  0.46451844    -0.26100
C652        C  0.59330030  0.40117744  0.50585676    -0.14200
C653        C  0.61770528  0.39721024  0.54614916     0.36400
C654        C  0.64505620  0.37074105  0.54371466    -0.25600
C655        C  0.64854461  0.34752754  0.50189631    -0.14800
C656        C  0.62336553  0.35098135  0.46217706     0.37500
N657        N  0.62565080  0.32796661  0.41885476    -0.89100
H658        H  0.57733207  0.38060344  0.43357908     0.18600
H659        H  0.66359615  0.36825684  0.57499647     0.18600
N660        N  0.61494533  0.41939502  0.59025004    -0.88100
H661        H  0.62879510  0.34474190  0.38702038     0.36000
H662        H  0.60116101  0.31388830  0.41559014     0.41100
H663        H  0.58908484  0.41593380  0.60568394     0.40700
H664        H  0.61803221  0.44688286  0.57972733     0.35600
C665        C  0.85705127  0.37402407  0.53857583    -0.26100
C666        C  0.85289408  0.35148485  0.49630092    -0.14200
C667        C  0.87622333  0.35663688  0.45442681     0.36400
C668        C  0.90322190  0.38359496  0.45587036    -0.25600
C669        C  0.90735554  0.40568971  0.49826564    -0.14800
C670        C  0.88413644  0.40091593  0.53984959     0.37500
N671        N  0.88836299  0.42312796  0.58361117    -0.89100
H672        H  0.83958167  0.37045366  0.57113353     0.18600
H673        H  0.92095306  0.38746447  0.42363423     0.18600
N674        N  0.87218911  0.33516178  0.40990842    -0.88100
H675        H  0.89303931  0.40574271  0.61438633     0.36000
H676        H  0.86401949  0.43696409  0.58996992     0.41100
H677        H  0.89661154  0.32157033  0.40312171     0.40700
H678        H  0.86741299  0.35300522  0.37965385     0.35600
C679        C  0.88110220  0.09123596  0.52635161    -0.26100
C680        C  0.90677694  0.09225098  0.48743641    -0.14200
C681        C  0.90503567  0.12011125  0.45070618     0.36400
C682        C  0.87778814  0.14675659  0.45358187    -0.25600
C683        C  0.85197992  0.14617905  0.49280518    -0.14800
C684        C  0.85394210  0.11797353  0.52964192     0.37500
N685        N  0.82905925  0.11667979  0.57113377    -0.89100
H686        H  0.88258272  0.06988648  0.55490814     0.18600
H687        H  0.87690581  0.16794417  0.42478387     0.18600
N688        N  0.93096417  0.12135080  0.41047235    -0.88100
H689        H  0.84390604  0.11797231  0.60445585     0.36000
H690        H  0.81573803  0.09140877  0.57050615     0.41100
H691        H  0.94432177  0.14658000  0.41187152     0.40700
H692        H  0.91696242  0.12019101  0.37644750     0.35600
C693        C  0.63089474  0.14645132  0.44450773    -0.26100
C694        C  0.65221031  0.14781764  0.48826256    -0.14200
C695        C  0.64568839  0.12188319  0.52716824     0.36400
C696        C  0.61837375  0.09556535  0.52169072    -0.25600
C697        C  0.59714586  0.09459183  0.47826647    -0.14800
C698        C  0.60364286  0.12014268  0.43915861     0.37500
N699        N  0.58317667  0.11968982  0.39355840    -0.89100
H700        H  0.63553367  0.16579332  0.41396935     0.18600
H701        H  0.61331732  0.07604056  0.55190935     0.18600
N702        N  0.66606793  0.12254319  0.57283611    -0.88100
H703        H  0.55589313  0.12348442  0.40255754     0.36000
H704        H  0.58612186  0.09386618  0.37724684     0.41100
H705        H  0.67864504  0.09705080  0.57730655     0.40700
H706        H  0.64800788  0.12602071  0.60284875     0.35600
C707        C  0.62213449  0.35281657  0.02538908    -0.26100
C708        C  0.64710568  0.34945495  0.98551418    -0.14200
C709        C  0.64379358  0.37318782  0.94328775     0.36400
C710        C  0.61640775  0.39983059  0.94223026    -0.25600
C711        C  0.59200555  0.40327181  0.98234741    -0.14800
C712        C  0.59490985  0.37948193  0.02430154     0.37500
N713        N  0.57107604  0.38244503  0.06677961    -0.89100
H714        H  0.62412656  0.33509175  0.05819502     0.18600
H715        H  0.61417887  0.41799236  0.90988699     0.18600
N716        N  0.66781928  0.37018995  0.90103679    -0.88100
H717        H  0.54456430  0.37829646  0.05470171     0.36000
H718        H  0.57306885  0.40902308  0.08093760     0.41100
H719        H  0.68083221  0.39540758  0.89594067     0.40700
H720        H  0.65233606  0.36513294  0.86902608     0.35600
C721        C  0.88586486  0.39876663  0.95298910    -0.26100
C722        C  0.90723965  0.40240881  0.99603444    -0.14200
C723        C  0.90071824  0.37947156  0.03809509     0.36400
C724        C  0.87320929  0.35323618  0.03621639    -0.25600
C725        C  0.85141692  0.34957467  0.99327642    -0.14800
C726        C  0.85806423  0.37262292  0.95119057     0.37500
N727        N  0.83712808  0.36928835  0.90627034    -0.89100
H728        H  0.89072517  0.41646619  0.92067444     0.18600
H729        H  0.86844712  0.33605271  0.06906434     0.18600
N730        N  0.92103926  0.38291644  0.08355860    -0.88100
H731        H  0.85477100  0.36349650  0.87648443     0.36000
H732        H  0.82494097  0.39462434  0.89886501     0.41100
H733        H  0.91823299  0.40976023  0.09651716     0.40700
H734        H  0.94831597  0.37826900  0.07538810     0.35600
C735        C  0.90033389  0.11722216  0.04146157    -0.26100
C736        C  0.90393581  0.09359827  0.00046534    -0.14200
C737        C  0.87918306  0.09616887  0.96008394     0.36400
C738        C  0.85149345  0.12235509  0.96199319    -0.25600
C739        C  0.84816805  0.14656347  0.00265290    -0.14800
C740        C  0.87277702  0.14355492  0.04300463     0.37500
N741        N  0.86956885  0.16663261  0.08616792    -0.89100
H742        H  0.91895127  0.11498852  0.07271341     0.18600
H743        H  0.83289042  0.12422506  0.93070219     0.18600
N744        N  0.88127255  0.07294281  0.91662488    -0.88100
H745        H  0.89381204  0.18104508  0.09007760     0.36000
H746        H  0.86616418  0.14987633  0.11797351     0.41100
H747        H  0.90330093  0.05512718  0.91823528     0.40700
H748        H  0.88569595  0.08981821  0.88518315     0.35600
C749        C  0.59916315  0.11713156  0.05425981    -0.26100
C750        C  0.59440035  0.09365837  0.01336738    -0.14200
C751        C  0.61676298  0.09747446  0.97051998     0.36400
C752        C  0.64342568  0.12456836  0.96925233    -0.25600
C753        C  0.64824332  0.14855011  0.00986403    -0.14800
C754        C  0.62587204  0.14451231  0.05294483     0.37500
N755        N  0.63040915  0.16769793  0.09568878    -0.89100
H756        H  0.58194082  0.11426968  0.08720550     0.18600
H757        H  0.66007546  0.12723047  0.93572511     0.18600
N758        N  0.61236542  0.07466363  0.92734045    -0.88100
H759        H  0.63597062  0.15106620  0.12695220     0.36000
H760        H  0.60591113  0.18117282  0.10239400     0.41100
H761        H  0.58588230  0.07763413  0.91434297     0.40700
H762        H  0.61620390  0.04736472  0.93831803     0.35600
N763        N  0.94305423  0.49859096  0.99445068    -0.36400
N764        N  0.49816902  0.94443818  0.00773255    -0.57000
N765        N  0.55398623  0.49917786  0.98215290    -0.36400
N766        N  0.49830934  0.55536983  0.99110561    -0.57000
C767        C  0.92285114  0.96904624  0.00887842     0.27200
C768        C  0.92151904  0.52771774  0.00394093     0.27200
C769        C  0.57330443  0.96945172  0.02221057     0.27200
C770        C  0.57409637  0.52851491  0.99516795     0.27200
C771        C  0.96913847  0.92153028  0.99009814     0.35800
C772        C  0.52736418  0.92311744  0.99902667     0.35800
C773        C  0.96651015  0.57747449  0.98843713     0.35800
C774        C  0.52748932  0.57712450  0.98392130     0.35800
C775        C  0.88886507  0.97977496  0.02547109    -0.21700
C776        C  0.88781350  0.51556972  0.02004111    -0.21700
C777        C  0.60628352  0.97953339  0.04244119    -0.21700
C778        C  0.60768450  0.51680895  0.01182947    -0.21700
C779        C  0.97967640  0.88670484  0.97560231    -0.22800
C780        C  0.51665532  0.88911526  0.98160394    -0.22700
C781        C  0.97605820  0.61318547  0.97595132    -0.22800
C782        C  0.51660893  0.61286630  0.97431936    -0.22700
C783        C  0.93311403  0.93241761  0.99941774    -0.18100
C784        C  0.93066031  0.56486086  0.99514898    -0.18100
C785        C  0.56376014  0.56562567  0.98938620    -0.18100
C786        C  0.56324126  0.93316557  0.01035126    -0.18100
H787        H  0.86615574  0.96230472  0.03507191     0.14800
H788        H  0.86455288  0.53212397  0.02980947     0.16800
H789        H  0.62808212  0.96158959  0.05401533     0.14800
H790        H  0.62995645  0.53368131  0.02417358     0.14800
H791        H  0.96244666  0.86350964  0.96763514     0.13100
H792        H  0.53375206  0.86602999  0.97227338     0.13100
H793        H  0.95814673  0.63590746  0.96770153     0.13100
H794        H  0.53366370  0.63657411  0.96785861     0.13100
H795        H  0.96791353  0.49944478  0.97618302     0.26400
H796        H  0.52957422  0.50013708  0.96300991     0.26400
N797        N  0.55616534  0.49703181  0.50750026    -0.36400
N798        N  0.00236255  0.55651603  0.49743465    -0.57000
N799        N  0.94677560  0.50046211  0.50308063    -0.36400
N800        N  0.00122913  0.94198411  0.49569625    -0.57000
C801        C  0.57685790  0.52654600  0.49605396     0.27200
C802        C  0.57630447  0.97087386  0.46541894     0.27200
C803        C  0.92644040  0.53073759  0.49483606     0.27200
C804        C  0.92684775  0.96797230  0.47905981     0.27200
C805        C  0.53134500  0.57498949  0.51341627     0.35800
C806        C  0.97373807  0.57758817  0.51014337     0.35800
C807        C  0.53158812  0.92343510  0.49107741     0.35800
C808        C  0.97173167  0.92097880  0.50431166     0.35800
C809        C  0.61012849  0.51500380  0.47777988    -0.21700
C810        C  0.60867998  0.98162233  0.44318582    -0.21700
C811        C  0.89224361  0.52046783  0.47909259    -0.21700
C812        C  0.89467290  0.97863361  0.45666574    -0.21700
C813        C  0.52115685  0.60998622  0.52770711    -0.22800
C814        C  0.98533774  0.61179098  0.52555427    -0.22700
C815        C  0.52175998  0.88887980  0.50849852    -0.22800
C816        C  0.98191715  0.88690643  0.52290200    -0.22700
C817        C  0.56725431  0.56348573  0.50468146    -0.18100
C818        C  0.56719380  0.93444532  0.47883354    -0.18100
C819        C  0.93610424  0.93147598  0.49190559    -0.18100
C820        C  0.93727681  0.56722401  0.50402351    -0.18100
H821        H  0.63268640  0.53199496  0.46602925     0.14800
H822        H  0.63038604  0.96406319  0.43031762     0.14800
H823        H  0.86969839  0.53824919  0.47012936     0.14800
H824        H  0.87317108  0.96106428  0.44355185     0.14800
H825        H  0.53866900  0.63269188  0.53697384     0.13100
H826        H  0.96876068  0.63471764  0.53713328     0.13100
H827        H  0.53936925  0.86600062  0.51714175     0.13100
H828        H  0.96450473  0.86408783  0.53280858     0.13100
H829        H  0.53184597  0.49745611  0.52730583     0.26400
H830        H  0.97181793  0.49976480  0.52058010     0.26400
O831        O  0.67300057  0.70338714  0.02626118    -0.78300
C832        C  0.74581634  0.74779009  0.13861882     0.82700
O833        O  0.70283978  0.82699327  0.97168802    -0.79400
O834        O  0.82301455  0.79487181  0.02833979    -0.80900
O835        O  0.79273359  0.67388600  0.96696088    -0.80700
O836        O  0.70254364  0.67354464  0.96606690    -0.79300
Zn837      Zn  0.70321801  0.74841755  0.04061061     1.55700
O838        O  0.82154611  0.70288560  0.02822852    -0.80700
Cd839      Cd  0.74755373  0.70596154  0.95386196     1.59700
Cd840      Cd  0.74754394  0.79506540  0.95601946     1.59600
O841        O  0.74731095  0.72167082  0.87905944    -0.80700
O842        O  0.74662714  0.74966362  0.99856231    -1.91200
Cd843      Cd  0.79080329  0.74921104  0.04130397     1.59900
O844        O  0.74654975  0.78267549  0.88019236    -0.80700
O845        O  0.77630354  0.74886575  0.11608861    -0.79300
C846        C  0.67566961  0.82235777  0.00076652     0.83200
C847        C  0.67581419  0.67642047  0.99625036     0.82900
O848        O  0.71621926  0.74718131  0.11432762    -0.78300
C849        C  0.81884295  0.67613973  0.99792134     0.83700
O850        O  0.67261988  0.79373594  0.02843651    -0.78400
C851        C  0.74650236  0.75253394  0.85625359     0.83800
C852        C  0.82041394  0.82217697  0.99828682     0.84100
O853        O  0.79356016  0.82588081  0.96880712    -0.80800
O854        O  0.67463803  0.79212167  0.46503989    -0.78300
C855        C  0.74846704  0.74703830  0.35656955     0.82700
O856        O  0.70582283  0.67277305  0.53192078    -0.79400
O857        O  0.82448561  0.70129059  0.46861070    -0.80900
O858        O  0.79557254  0.82593116  0.51946008    -0.80700
O859        O  0.70491255  0.82740296  0.51790844    -0.79300
Zn860      Zn  0.70564095  0.74713200  0.45493486     1.55700
O861        O  0.82574442  0.79253727  0.46366081    -0.80700
Cd862      Cd  0.74951895  0.79554127  0.53542000     1.59700
Cd863      Cd  0.75012124  0.70617047  0.54319132     1.59600
O864        O  0.74832389  0.78458353  0.61211201    -0.80700
O865        O  0.74898575  0.74903919  0.49617768    -1.91200
Cd866      Cd  0.79331092  0.74716527  0.45320486     1.59900
O867        O  0.74823712  0.72363336  0.61671747    -0.80700
O868        O  0.77891583  0.74694026  0.37869265    -0.79300
C869        C  0.67892903  0.67521215  0.50231645     0.83200
C870        C  0.67773229  0.82176433  0.48967141     0.82900
O871        O  0.71879437  0.74642209  0.38119503    -0.78300
C872        C  0.82288245  0.82105299  0.49071738     0.83700
O873        O  0.67584594  0.70200652  0.47143884    -0.78400
C874        C  0.74775504  0.75490744  0.63779587     0.83800
C875        C  0.82269690  0.67617763  0.50223023     0.84100
O876        O  0.79654552  0.67489691  0.53365406    -0.80800
C877        C  0.75725035  0.78515828  0.77451381    -0.26100
C878        C  0.74564616  0.75347289  0.80040186    -0.14200
C879        C  0.73336091  0.72326819  0.77245895     0.36400
C880        C  0.73407318  0.72476145  0.71982445    -0.25600
C881        C  0.74624376  0.75611039  0.69369731    -0.14800
C882        C  0.75741978  0.78701307  0.72155857     0.37500
N883        N  0.76978904  0.81978684  0.69640896    -0.89100
H884        H  0.76653224  0.80857865  0.79566767     0.18600
H885        H  0.72469351  0.70107209  0.69929598     0.18600
N886        N  0.71941304  0.69115450  0.79719712    -0.88100
H887        H  0.77962499  0.83864505  0.72240685     0.36000
H888        H  0.74726535  0.83219974  0.67985135     0.41100
H889        H  0.73476839  0.66864093  0.78562377     0.40700
H890        H  0.69281324  0.68719514  0.78525412     0.35600
C891        C  0.77582092  0.76094338  0.21975946    -0.26100
C892        C  0.74529687  0.74783318  0.19440032    -0.14200
C893        C  0.71536882  0.73513289  0.22282847     0.36400
C894        C  0.71673800  0.73546305  0.27561794    -0.25600
C895        C  0.74758670  0.74801911  0.30085282    -0.14800
C896        C  0.77716046  0.76140056  0.27234158     0.37500
N897        N  0.80839352  0.77629863  0.29644004    -0.89100
H898        H  0.79884244  0.77140792  0.19870081     0.18600
H899        H  0.69373258  0.72518353  0.29687895     0.18600
N900        N  0.68388806  0.72103691  0.19849676    -0.88100
H901        H  0.81164040  0.80340894  0.28412564     0.36000
H902        H  0.83102648  0.76136204  0.28474312     0.41100
H903        H  0.66158936  0.73647924  0.21017116     0.40700
H904        H  0.67998051  0.69399514  0.21074165     0.35600
C905        C  0.59688025  0.87839665  0.44501949    -0.26100
C906        C  0.59638156  0.90648270  0.48064957    -0.14200
C907        C  0.62243810  0.90657239  0.51923742     0.36400
C908        C  0.64867291  0.87901096  0.52104994    -0.25600
C909        C  0.64928669  0.85053341  0.48563677    -0.14800
C910        C  0.62282816  0.85034572  0.44729696     0.37500
N911        N  0.62212762  0.82194284  0.41041473    -0.89100
H912        H  0.57667859  0.87802478  0.41562088     0.18600
H913        H  0.66833898  0.87961686  0.55110619     0.18600
N914        N  0.62214024  0.93363610  0.55803206    -0.88100
H915        H  0.62460477  0.83413788  0.37480104     0.36000
H916        H  0.59690278  0.80905193  0.41250299     0.41100
H917        H  0.59684868  0.93307259  0.57581440     0.40700
H918        H  0.62587312  0.95948707  0.54163307     0.35600
C919        C  0.85048204  0.87840040  0.52375976    -0.26100
C920        C  0.85208507  0.84921257  0.48949726    -0.14200
C921        C  0.88169561  0.84754015  0.45546644     0.36400
C922        C  0.90889291  0.87437471  0.45701880    -0.25600
C923        C  0.90717005  0.90311119  0.49163473    -0.14800
C924        C  0.87764003  0.90514084  0.52506964     0.37500
N925        N  0.87531677  0.93429980  0.56071834    -0.89100
H926        H  0.82816658  0.88049955  0.55017446     0.18600
H927        H  0.93139991  0.87292784  0.43079370     0.18600
N928        N  0.88427117  0.81900593  0.41889473    -0.88100
H929        H  0.87397073  0.92269995  0.59680121     0.36000
H930        H  0.85120193  0.94852604  0.55430089     0.41100
H931        H  0.90859062  0.80498539  0.42462120     0.40700
H932        H  0.88527119  0.83119229  0.38314150     0.35600
C933        C  0.88593023  0.59919538  0.54636013    -0.26100
C934        C  0.90896799  0.59614285  0.50460976    -0.14200
C935        C  0.90378912  0.61910426  0.46263200     0.36400
C936        C  0.87560750  0.64480867  0.46279029    -0.25600
C937        C  0.85193788  0.64797524  0.50428185    -0.14800
C938        C  0.85733528  0.62471330  0.54675342     0.37500
N939        N  0.83430234  0.62718849  0.59037418    -0.89100
H940        H  0.89003949  0.58117598  0.57846829     0.18600
H941        H  0.87207546  0.66208802  0.42980771     0.18600
N942        N  0.92682377  0.61586243  0.41937622    -0.88100
H943        H  0.84395259  0.61043066  0.61947481     0.36000
H944        H  0.80911012  0.61647389  0.58060103     0.41100
H945        H  0.93909237  0.64128806  0.41280056     0.40700
H946        H  0.91064598  0.60984614  0.38837465     0.35600
C947        C  0.62653642  0.64357254  0.46277592    -0.26100
C948        C  0.65061212  0.64621356  0.50339738    -0.14200
C949        C  0.64710231  0.62109384  0.54401168     0.36400
C950        C  0.62001542  0.59420647  0.54312145    -0.25600
C951        C  0.59611567  0.59177707  0.50258354    -0.14800
C952        C  0.59953446  0.61666736  0.46167343     0.37500
N953        N  0.57674206  0.61509792  0.41804318    -0.89100
H954        H  0.62892101  0.66228630  0.43103266     0.18600
H955        H  0.61734689  0.57528486  0.57461683     0.18600
N956        N  0.67042078  0.62308917  0.58677504    -0.88100
H957        H  0.56101495  0.63892180  0.41740797     0.36000
H958        H  0.55893949  0.59293834  0.41953361     0.41100
H959        H  0.68368547  0.59790697  0.59062677     0.40700
H960        H  0.65437556  0.62698336  0.61882397     0.35600
C961        C  0.62301127  0.85170111  0.04407935    -0.26100
C962        C  0.64698703  0.85095707  0.00273328    -0.14200
C963        C  0.64312054  0.87768465  0.96418447     0.36400
C964        C  0.61570848  0.90414581  0.96761827    -0.25600
C965        C  0.59189590  0.90461559  0.00874667    -0.14800
C966        C  0.59579330  0.87828084  0.04754417     0.37500
N967        N  0.57294051  0.87842018  0.09126005    -0.89100
H968        H  0.62565299  0.83179130  0.07434204     0.18600
H969        H  0.61284680  0.92439293  0.93779692     0.18600
N970        N  0.66649036  0.87783769  0.92099266    -0.88100
H971        H  0.54616661  0.87495051  0.07991437     0.36000
H972        H  0.57520971  0.90400050  0.10841944     0.41100
H973        H  0.67944684  0.90329216  0.91903586     0.40700
H974        H  0.65052013  0.87514531  0.88888545     0.35600
C975        C  0.88464066  0.89811338  0.95570180    -0.26100
C976        C  0.90447834  0.90391673  0.99962926    -0.14200
C977        C  0.89673974  0.88289154  0.04315364     0.36400
C978        C  0.86950952  0.85627294  0.04185860    -0.25600
C979        C  0.84933945  0.85039383  0.99791154    -0.14800
C980        C  0.85722563  0.87156651  0.95439977     0.37500
N981        N  0.83810469  0.86566598  0.90843807    -0.89100
H982        H  0.89061799  0.91418655  0.92217349     0.18600
H983        H  0.86374644  0.84047544  0.07569210     0.18600
N984        N  0.91588256  0.88841599  0.08919282    -0.88100
H985        H  0.85693497  0.85867502  0.88061819     0.36000
H986        H  0.82591519  0.89038517  0.89776702     0.41100
H987        H  0.91241358  0.91569880  0.09997234     0.40700
H988        H  0.94340611  0.88395718  0.08246585     0.35600
C989        C  0.89654118  0.61405876  0.03798377    -0.26100
C990        C  0.90107980  0.59238072  0.99516400    -0.14200
C991        C  0.87774541  0.59736726  0.95360523     0.36400
C992        C  0.85099154  0.62454632  0.95574959    -0.25600
C993        C  0.84688205  0.64696930  0.99822727    -0.14800
C994        C  0.86963808  0.64105286  0.04007058     0.37500
N995        N  0.86514802  0.66178318  0.08523353    -0.89100
H996        H  0.91403033  0.60988481  0.07014107     0.18600
H997        H  0.83360070  0.62843220  0.92344331     0.18600
N998        N  0.88032782  0.57562029  0.90878815    -0.88100
H999        H  0.88954709  0.67510062  0.09267962     0.36000
H1000       H  0.85990204  0.64344746  0.11485496     0.41100
H1001       H  0.90106675  0.55629996  0.91101333     0.40700
H1002       H  0.88700932  0.59324425  0.87892318     0.35600
C1003       C  0.59806127  0.61353529  0.03525912    -0.26100
C1004       C  0.59252275  0.59398918  0.99080658    -0.14200
C1005       C  0.61466845  0.60117328  0.94847380     0.36400
C1006       C  0.64169428  0.62788103  0.95121427    -0.25600
C1007       C  0.64720743  0.64788745  0.99556078    -0.14800
C1008       C  0.62529530  0.64023011  0.03812262     0.37500
N1009       N  0.63117198  0.65872292  0.08471036    -0.89100
H1010       H  0.58136964  0.60774516  0.06803596     0.18600
H1011       H  0.65818471  0.63332266  0.91813505     0.18600
N1012       N  0.60992379  0.58201680  0.90212493    -0.88100
H1013       H  0.63688732  0.63897622  0.11230491     0.36000
H1014       H  0.60714380  0.67191216  0.09488048     0.41100
H1015       H  0.58337254  0.58614385  0.89000039     0.40700
H1016       H  0.61364370  0.55400728  0.90891084     0.35600
loop_ 
_geom_bond_atom_site_label_1 
_geom_bond_atom_site_label_2 
_geom_bond_distance 
_geom_bond_site_symmetry_2 
_ccdc_geom_bond_type 
N1            C6   1.352       .  A
N1          C259   1.352   1_545  A
N1           H33   1.040   1_554  S
N2           C10   1.350   1_554  A
N2          C517   1.351   1_454  A
N3            C8   1.353   1_566  A
N3          C261   1.352   1_556  A
N3           H34   1.039       .  S
N4           C12   1.352   1_654  A
N4          C519   1.352   1_554  A
C5          N255   1.352       .  A
C5           C13   1.387   1_556  A
C5           C21   1.414       .  A
C6           C22   1.412       .  A
C6           C14   1.386       .  A
C7          N257   1.353   1_554  A
C7           C15   1.387       .  A
C7           C24   1.414       .  A
C8           C23   1.415   1_554  A
C8           C16   1.387       .  A
C9          N510   1.349       .  A
C9           C21   1.410       .  A
C9           C17   1.387       .  A
C10          C24   1.413   1_556  A
C10          C18   1.387       .  A
C11         N512   1.351   1_556  A
C11          C19   1.386       .  A
C11          C22   1.411   1_556  A
C12          C20   1.386       .  A
C12          C23   1.413       .  A
C13         C268   1.376       .  A
C13          H25   1.082       .  S
C14         C267   1.376   1_545  A
C14          H26   1.082       .  S
C15         C270   1.376       .  A
C15          H27   1.082       .  S
C16         C269   1.376   1_545  A
C16          H28   1.082       .  S
C17         C526   1.374       .  A
C17          H29   1.082       .  S
C18         C525   1.373   1_455  A
C18          H30   1.082       .  S
C19         C528   1.373       .  A
C19          H31   1.082       .  S
C20         C527   1.373   1_455  A
C20          H32   1.082       .  S
C21         C214   1.483       .  S
C22         C228   1.486   1_554  S
C23         C242   1.487       .  S
C24         C203   1.484       .  S
N35          C39   1.353   1_565  A
N35         C294   1.351       .  A
N35          H67   1.039       .  S
N36          C44   1.350       .  A
N36         C551   1.351       .  A
N37          C41   1.351       .  A
N37         C296   1.353   1_545  A
N37          H68   1.039       .  S
N38          C46   1.350       .  A
N38         C553   1.351       .  A
C39          C47   1.386       .  A
C39          C55   1.412       .  A
C40         N289   1.352       .  A
C40          C56   1.414       .  A
C40          C48   1.386       .  A
C41          C49   1.387       .  A
C41          C58   1.412       .  A
C42         N291   1.352       .  A
C42          C57   1.412       .  A
C42          C50   1.387       .  A
C43         N544   1.351       .  A
C43          C55   1.410       .  A
C43          C51   1.385       .  A
C44          C58   1.411       .  A
C44          C52   1.386       .  A
C45         N546   1.351       .  A
C45          C53   1.386       .  A
C45          C56   1.412       .  A
C46          C54   1.386       .  A
C46          C57   1.411       .  A
C47         C302   1.376   1_545  A
C47          H59   1.082       .  S
C48         C301   1.376       .  A
C48          H60   1.082       .  S
C49         C304   1.375   1_545  A
C49          H61   1.082       .  S
C50         C303   1.376       .  A
C50          H62   1.082       .  S
C51         C560   1.374   1_455  A
C51          H63   1.082       .  S
C52         C559   1.373       .  A
C52          H64   1.082       .  S
C53         C562   1.373   1_455  A
C53          H65   1.082       .  S
C54         C561   1.374       .  A
C54          H66   1.082       .  S
C55         C189   1.485       .  S
C56         C144   1.487       .  S
C57         C161   1.481       .  S
C58         C172   1.482       .  S
O69          C85   1.277       .  A
O69         Zn75   2.038       .  S
C70         C130   1.483       .  S
C70          O86   1.275       .  A
C70          O83   1.274       .  A
O71          C84   1.273       .  A
O71         Cd78   2.055       .  S
O72          C90   1.274   1_554  A
O72         Cd81   2.065       .  S
O73          C87   1.276       .  A
O73         Cd77   2.079       .  S
O74          C85   1.275   1_556  A
O74         Cd77   2.062       .  S
Zn75         O86   2.022       .  S
Zn75         O88   2.039       .  S
Zn75         O80   1.950   1_554  S
O76          C87   1.273   1_554  A
O76         Cd81   2.057       .  S
Cd77         O79   2.062       .  S
Cd77         O80   1.999       .  S
Cd78         O82   2.057       .  S
Cd78         O91   2.065       .  S
Cd78         O80   1.992       .  S
O79          C89   1.273       .  A
O80         Cd81   1.991   1_556  S
Cd81         O83   2.056       .  S
O82          C89   1.274       .  A
C84         C200   1.486       .  S
C84          O88   1.277   1_556  A
C85         C245   1.484       .  S
C87         C231   1.487       .  S
C89         C116   1.485       .  S
C90         C217   1.488       .  S
C90          O91   1.273       .  A
O92         C108   1.275       .  A
O92         Zn98   2.026       .  S
C93         C133   1.483       .  S
C93         O109   1.275       .  A
C93         O106   1.273       .  A
O94         C107   1.274       .  A
O94        Cd101   2.066       .  S
O95         C113   1.274       .  A
O95        Cd104   2.059       .  S
O96         C110   1.274       .  A
O96        Cd100   2.069       .  S
O97         C108   1.274       .  A
O97        Cd100   2.061       .  S
Zn98        O109   2.018       .  S
Zn98        O111   2.029       .  S
Zn98        O103   1.945       .  S
O99         C110   1.274       .  A
O99        Cd104   2.066       .  S
Cd100       O102   2.054       .  S
Cd100       O103   1.994       .  S
Cd101       O105   2.064       .  S
Cd101       O114   2.073       .  S
Cd101       O103   1.999       .  S
O102        C112   1.273       .  A
O103       Cd104   1.992       .  S
Cd104       O106   2.056       .  S
O105        C112   1.275       .  A
C107        C186   1.486       .  S
C107        O111   1.276       .  A
C108        C147   1.488       .  S
C110        C158   1.484       .  S
C112        C119   1.486       .  S
C113        C175   1.485       .  S
C113        O114   1.275       .  A
C115        C116   1.405       .  A
C115        C120   1.399       .  A
C115        H122   1.084       .  S
C116        C117   1.413       .  A
C117        C118   1.401       .  A
C117        N124   1.433       .  S
C118        C119   1.406       .  A
C118        H123   1.084       .  S
C119        C120   1.414       .  A
C120        N121   1.433       .  S
N121        H125   1.046       .  S
N121        H126   1.046       .  S
N124        H127   1.046       .  S
N124        H128   1.046       .  S
C129        C130   1.405       .  A
C129        C134   1.401       .  A
C129        H136   1.084       .  S
C130        C131   1.411       .  A
C131        C132   1.402       .  A
C131        N138   1.432       .  S
C132        C133   1.405       .  A
C132        H137   1.084       .  S
C133        C134   1.413       .  A
C134        N135   1.433       .  S
N135        H139   1.046       .  S
N135        H140   1.046       .  S
N138        H141   1.046       .  S
N138        H142   1.046       .  S
C143        C144   1.401       .  A
C143        C148   1.404       .  A
C143        H150   1.084       .  S
C144        C145   1.411       .  A
C145        C146   1.398       .  A
C145        N152   1.433       .  S
C146        C147   1.408       .  A
C146        H151   1.084       .  S
C147        C148   1.415       .  A
C148        N149   1.432       .  S
N149        H153   1.046       .  S
N149        H154   1.046       .  S
N152        H155   1.046       .  S
N152        H156   1.044       .  S
C157        C158   1.407       .  A
C157        C162   1.402       .  A
C157        H164   1.084       .  S
C158        C159   1.415       .  A
C159        C160   1.402       .  A
C159        N166   1.432       .  S
C160        C161   1.399       .  A
C160        H165   1.084       .  S
C161        C162   1.404       .  A
C162        N163   1.432       .  S
N163        H167   1.046       .  S
N163        H168   1.046       .  S
N166        H169   1.046       .  S
N166        H170   1.046       .  S
C171        C172   1.401       .  A
C171        C176   1.403       .  A
C171        H178   1.084       .  S
C172        C173   1.404       .  A
C173        C174   1.399       .  A
C173        N180   1.432       .  S
C174        C175   1.408       .  A
C174        H179   1.084       .  S
C175        C176   1.415       .  A
C176        N177   1.432       .  S
N177        H181   1.046       .  S
N177        H182   1.046       .  S
N180        H183   1.045       .  S
N180        H184   1.046       .  S
C185        C186   1.407       .  A
C185        C190   1.401       .  A
C185        H192   1.084       .  S
C186        C187   1.414       .  A
C187        C188   1.403       .  A
C187        N194   1.432       .  S
C188        C189   1.399       .  A
C188        H193   1.084       .  S
C189        C190   1.411       .  A
C190        N191   1.432       .  S
N191        H195   1.045       .  S
N191        H196   1.046       .  S
N194        H197   1.046       .  S
N194        H198   1.046       .  S
C199        C200   1.407   1_554  A
C199        C204   1.401       .  A
C199        H206   1.084       .  S
C200        C201   1.416       .  A
C201        C202   1.402       .  A
C201        N208   1.433       .  S
C202        C203   1.399   1_556  A
C202        H207   1.084       .  S
C203        C204   1.411       .  A
C204        N205   1.432       .  S
N205        H209   1.045       .  S
N205        H210   1.046       .  S
N208        H211   1.046       .  S
N208        H212   1.046       .  S
C213        C214   1.400       .  A
C213        C218   1.402       .  A
C213        H220   1.084       .  S
C214        C215   1.410   1_556  A
C215        C216   1.397       .  A
C215        N222   1.433       .  S
C216        C217   1.408   1_554  A
C216        H221   1.083       .  S
C217        C218   1.416       .  A
C218        N219   1.432       .  S
N219        H223   1.046       .  S
N219        H224   1.046       .  S
N222        H225   1.045       .  S
N222        H226   1.044       .  S
C227        C228   1.400   1_554  A
C227        C232   1.400       .  A
C227        H234   1.084       .  S
C228        C229   1.417       .  A
C229        C230   1.403       .  A
C229        N236   1.439       .  S
C230        C231   1.406       .  A
C230        H235   1.084       .  S
C231        C232   1.414   1_556  A
C232        N233   1.433       .  S
N233        H237   1.046       .  S
N233        H238   1.046       .  S
N236        H239   1.043       .  S
N236        H240   1.046       .  S
C241        C242   1.402   1_554  A
C241        C246   1.405       .  A
C241        H248   1.084       .  S
C242        C243   1.410       .  A
C243        C244   1.398       .  A
C243        N250   1.432       .  S
C244        C245   1.407   1_556  A
C244        H249   1.084       .  S
C245        C246   1.412       .  A
C246        N247   1.432       .  S
N247        H251   1.046       .  S
N247        H252   1.046       .  S
N250        H253   1.046       .  S
N250        H254   1.045       .  S
N255        C260   1.352       .  A
N255        H287   1.039       .  S
N256        C771   1.351       .  A
N256        C264   1.350   1_655  A
N257        C262   1.353   1_556  A
N257        H288   1.036       .  S
N258        C773   1.351       .  A
N258        C266   1.352   1_655  A
C259        C267   1.387       .  A
C259        C275   1.413       .  A
C260        C276   1.414       .  A
C260        C268   1.386   1_556  A
C261        C269   1.388       .  A
C261        C278   1.416   1_554  A
C262        C277   1.416   1_554  A
C262        C270   1.387       .  A
C263        N764   1.349   1_556  A
C263        C275   1.411   1_556  A
C263        C271   1.386       .  A
C264        C278   1.412       .  A
C264        C272   1.387       .  A
C265        N766   1.352       .  A
C265        C273   1.386       .  A
C265        C276   1.414       .  A
C266        C274   1.386       .  A
C266        C277   1.413       .  A
C267        H279   1.082       .  S
C268        H280   1.082       .  S
C269        H281   1.082       .  S
C270        H282   1.082       .  S
C271        C780   1.374       .  A
C271        H283   1.082       .  S
C272        C779   1.373   1_455  A
C272        H284   1.082       .  S
C273        C782   1.374       .  A
C273        H285   1.082       .  S
C274        C781   1.374   1_455  A
C274        H286   1.082       .  S
C275        C468   1.485       .  S
C276        C482   1.490       .  S
C277        C496   1.487       .  S
C278        C457   1.483       .  S
N289        C293   1.353       .  A
N289        H321   1.039       .  S
N290        C805   1.350       .  A
N290        C298   1.350       .  A
N291        C295   1.352       .  A
N291        H322   1.039       .  S
N292        C807   1.350       .  A
N292        C300   1.350       .  A
C293        C301   1.388       .  A
C293        C309   1.416       .  A
C294        C310   1.414       .  A
C294        C302   1.388       .  A
C295        C303   1.387       .  A
C295        C312   1.413       .  A
C296        C311   1.413       .  A
C296        C304   1.387       .  A
C297        N798   1.351       .  A
C297        C309   1.413       .  A
C297        C305   1.387       .  A
C298        C312   1.411       .  A
C298        C306   1.386       .  A
C299        N800   1.349       .  A
C299        C307   1.386       .  A
C299        C310   1.411       .  A
C300        C308   1.385       .  A
C300        C311   1.410       .  A
C301        H313   1.082       .  S
C302        H314   1.082       .  S
C303        H315   1.082       .  S
C304        H316   1.082       .  S
C305        C814   1.375   1_455  A
C305        H317   1.082       .  S
C306        C813   1.374       .  A
C306        H318   1.082       .  S
C307        C816   1.375   1_455  A
C307        H319   1.082       .  S
C308        C815   1.373       .  A
C308        H320   1.082       .  S
C309        C443   1.489       .  S
C310        C398   1.483       .  S
C311        C415   1.486       .  S
C312        C426   1.486       .  S
O323        C339   1.275   1_554  A
O323       Zn329   2.026       .  S
C324        C384   1.487       .  S
C324        O340   1.275       .  A
C324        O337   1.274       .  A
O325        C338   1.272       .  A
O325       Cd332   2.055       .  S
O326        C344   1.275   1_554  A
O326       Cd335   2.070       .  S
O327        C341   1.277       .  A
O327       Cd331   2.077       .  S
O328        C339   1.276       .  A
O328       Cd331   2.074       .  S
Zn329       O340   2.023       .  S
Zn329       O342   2.022       .  S
Zn329       O334   1.948   1_554  S
O330        C341   1.275   1_554  A
O330       Cd335   2.071       .  S
Cd331       O333   2.068       .  S
Cd331       O334   1.998       .  S
Cd332       O336   2.061       .  S
Cd332       O345   2.070       .  S
Cd332       O334   1.996       .  S
O333        C343   1.275       .  A
O334       Cd335   1.993   1_556  S
Cd335       O337   2.052       .  S
O336        C343   1.274       .  A
C338        C454   1.484       .  S
C338        O342   1.275   1_556  A
C339        C499   1.489       .  S
C341        C485   1.490       .  S
C343        C370   1.483       .  S
C344        C471   1.488       .  S
C344        O345   1.274       .  A
O346        C362   1.275       .  A
O346       Zn352   2.020       .  S
C347        C387   1.487       .  S
C347        O363   1.275       .  A
C347        O360   1.273       .  A
O348        C361   1.274       .  A
O348       Cd355   2.064       .  S
O349        C367   1.275       .  A
O349       Cd358   2.068       .  S
O350        C364   1.276       .  A
O350       Cd354   2.076       .  S
O351        C362   1.274       .  A
O351       Cd354   2.061       .  S
Zn352       O363   2.018       .  S
Zn352       O365   2.030       .  S
Zn352       O357   1.948       .  S
O353        C364   1.272       .  A
O353       Cd358   2.058       .  S
Cd354       O356   2.063       .  S
Cd354       O357   1.999       .  S
Cd355       O359   2.062       .  S
Cd355       O368   2.073       .  S
Cd355       O357   1.991       .  S
O356        C366   1.274       .  A
O357       Cd358   1.989       .  S
Cd358       O360   2.054       .  S
O359        C366   1.275       .  A
C361        C440   1.492       .  S
C361        O365   1.276       .  A
C362        C401   1.485       .  S
C364        C412   1.489       .  S
C366        C373   1.482       .  S
C367        C429   1.491       .  S
C367        O368   1.275       .  A
C369        C370   1.406       .  A
C369        C374   1.406       .  A
C369        H376   1.084       .  S
C370        C371   1.410       .  A
C371        C372   1.399       .  A
C371        N378   1.433       .  S
C372        C373   1.404       .  A
C372        H377   1.084       .  S
C373        C374   1.415       .  A
C374        N375   1.438       .  S
N375        H379   1.046       .  S
N375        H380   1.046       .  S
N378        H381   1.046       .  S
N378        H382   1.046       .  S
C383        C384   1.406       .  A
C383        C388   1.399       .  A
C383        H390   1.084       .  S
C384        C385   1.413       .  A
C385        C386   1.403       .  A
C385        N392   1.432       .  S
C386        C387   1.407       .  A
C386        H391   1.084       .  S
C387        C388   1.414       .  A
C388        N389   1.433       .  S
N389        H393   1.046       .  S
N389        H394   1.046       .  S
N392        H395   1.046       .  S
N392        H396   1.046       .  S
C397        C398   1.401       .  A
C397        C402   1.402       .  A
C397        H404   1.084       .  S
C398        C399   1.410       .  A
C399        C400   1.397       .  A
C399        N406   1.433       .  S
C400        C401   1.408       .  A
C400        H405   1.084       .  S
C401        C402   1.414       .  A
C402        N403   1.432       .  S
N403        H407   1.046       .  S
N403        H408   1.046       .  S
N406        H409   1.045       .  S
N406        H410   1.044       .  S
C411        C412   1.408       .  A
C411        C416   1.402       .  A
C411        H418   1.084       .  S
C412        C413   1.421       .  A
C413        C414   1.405       .  A
C413        N420   1.438       .  S
C414        C415   1.399       .  A
C414        H419   1.084       .  S
C415        C416   1.404       .  A
C416        N417   1.432       .  S
N417        H421   1.046       .  S
N417        H422   1.046       .  S
N420        H423   1.045       .  S
N420        H424   1.046       .  S
C425        C426   1.400       .  A
C425        C430   1.403       .  A
C425        H432   1.084       .  S
C426        C427   1.405       .  A
C427        C428   1.403       .  A
C427        N434   1.432       .  S
C428        C429   1.409       .  A
C428        H433   1.083       .  S
C429        C430   1.417       .  A
C430        N431   1.432       .  S
N431        H435   1.046       .  S
N431        H436   1.046       .  S
N434        H437   1.046       .  S
N434        H438   1.046       .  S
C439        C440   1.409       .  A
C439        C444   1.401       .  A
C439        H446   1.083       .  S
C440        C441   1.417       .  A
C441        C442   1.402       .  A
C441        N448   1.432       .  S
C442        C443   1.400       .  A
C442        H447   1.084       .  S
C443        C444   1.413       .  A
C444        N445   1.433       .  S
N445        H449   1.043       .  S
N445        H450   1.045       .  S
N448        H451   1.046       .  S
N448        H452   1.046       .  S
C453        C454   1.406   1_554  A
C453        C458   1.398       .  A
C453        H460   1.084       .  S
C454        C455   1.415       .  A
C455        C456   1.402       .  A
C455        N462   1.433       .  S
C456        C457   1.399       .  A
C456        H461   1.084       .  S
C457        C458   1.411   1_556  A
C458        N459   1.433       .  S
N459        H463   1.045       .  S
N459        H464   1.046       .  S
N462        H465   1.046       .  S
N462        H466   1.046       .  S
C467        C468   1.401   1_556  A
C467        C472   1.403       .  A
C467        H474   1.084       .  S
C468        C469   1.411       .  A
C469        C470   1.398       .  A
C469        N476   1.433       .  S
C470        C471   1.408   1_554  A
C470        H475   1.084       .  S
C471        C472   1.415       .  A
C472        N473   1.432       .  S
N473        H477   1.045       .  S
N473        H478   1.046       .  S
N476        H479   1.046       .  S
N476        H480   1.044       .  S
C481        C482   1.402   1_554  A
C481        C486   1.404       .  A
C481        H488   1.084       .  S
C482        C483   1.417       .  A
C483        C484   1.402       .  A
C483        N490   1.440       .  S
C484        C485   1.406       .  A
C484        H489   1.084       .  S
C485        C486   1.415   1_556  A
C486        N487   1.432       .  S
N487        H491   1.046       .  S
N487        H492   1.046       .  S
N490        H493   1.042       .  S
N490        H494   1.045       .  S
C495        C496   1.400   1_554  A
C495        C500   1.405       .  A
C495        H502   1.084       .  S
C496        C497   1.410       .  A
C497        C498   1.400       .  A
C497        N504   1.433       .  S
C498        C499   1.408       .  A
C498        H503   1.084       .  S
C499        C500   1.415   1_556  A
C500        N501   1.432       .  S
N501        H505   1.046       .  S
N501        H506   1.046       .  S
N504        H507   1.046       .  S
N504        H508   1.045       .  S
N509        C514   1.350   1_566  A
N509        C767   1.352   1_556  A
N509        H541   1.039       .  S
N510        C518   1.349       .  A
N511        C516   1.351   1_565  A
N511        C769   1.352       .  A
N511        H542   1.039   1_564  S
N512        C520   1.350       .  A
C513        N763   1.352   1_554  A
C513        C521   1.387       .  A
C513        C529   1.413   1_554  A
C514        C530   1.414       .  A
C514        C522   1.388       .  A
C515        N765   1.354       .  A
C515        C523   1.387   1_556  A
C515        C532   1.415       .  A
C516        C531   1.414       .  A
C516        C524   1.387       .  A
C517        C529   1.412       .  A
C517        C525   1.386       .  A
C518        C532   1.409       .  A
C518        C526   1.386       .  A
C519        C527   1.387       .  A
C519        C530   1.414   1_556  A
C520        C528   1.387   1_554  A
C520        C531   1.412       .  A
C521        C776   1.375       .  A
C521        H533   1.082       .  S
C522        C775   1.375   1_545  A
C522        H534   1.082       .  S
C523        C778   1.376       .  A
C523        H535   1.082       .  S
C524        C777   1.377   1_545  A
C524        H536   1.082       .  S
C525        H537   1.082       .  S
C526        H538   1.082       .  S
C527        H539   1.082       .  S
C528        H540   1.082       .  S
C529        C722   1.485       .  S
C530        C736   1.485       .  S
C531        C750   1.483       .  S
C532        C711   1.486       .  S
N543        C802   1.351   1_545  A
N543        C547   1.352       .  A
N543        H575   1.039       .  S
N544        C552   1.350   1_455  A
N545        C804   1.352       .  A
N545        C549   1.351   1_565  A
N545        H576   1.040       .  S
N546        C554   1.351   1_455  A
C547        C555   1.386       .  A
C547        C563   1.412       .  A
C548        N797   1.353       .  A
C548        C564   1.414       .  A
C548        C556   1.387       .  A
C549        C557   1.386       .  A
C549        C566   1.412       .  A
C550        N799   1.352       .  A
C550        C565   1.414       .  A
C550        C558   1.387       .  A
C551        C563   1.411       .  A
C551        C559   1.386       .  A
C552        C566   1.411       .  A
C552        C560   1.387       .  A
C553        C561   1.386       .  A
C553        C564   1.411       .  A
C554        C562   1.386       .  A
C554        C565   1.412       .  A
C555        C810   1.378   1_545  A
C555        H567   1.082       .  S
C556        C809   1.376       .  A
C556        H568   1.082       .  S
C557        C812   1.376   1_545  A
C557        H569   1.082       .  S
C558        C811   1.375       .  A
C558        H570   1.082       .  S
C559        H571   1.082       .  S
C560        H572   1.082       .  S
C561        H573   1.082       .  S
C562        H574   1.082       .  S
C563        C697   1.485       .  S
C564        C652   1.487       .  S
C565        C669   1.484       .  S
C566        C680   1.484       .  S
O577        C593   1.275       .  A
O577       Zn583   2.029       .  S
C578        C638   1.488       .  S
C578        O594   1.275       .  A
C578        O591   1.273       .  A
O579        C592   1.274       .  A
O579       Cd586   2.064       .  S
O580        C598   1.273   1_554  A
O580       Cd589   2.062       .  S
O581        C595   1.275   1_556  A
O581       Cd585   2.072       .  S
O582        C593   1.275   1_556  A
O582       Cd585   2.063       .  S
Zn583       O594   2.026       .  S
Zn583       O596   2.034       .  S
Zn583       O588   1.950   1_554  S
O584        C595   1.273       .  A
O584       Cd589   2.058       .  S
Cd585       O587   2.067       .  S
Cd585       O588   2.000       .  S
Cd586       O590   2.057       .  S
Cd586       O599   2.077       .  S
Cd586       O588   1.993       .  S
O587        C597   1.274       .  A
O588       Cd589   1.988   1_556  S
Cd589       O591   2.049       .  S
O590        C597   1.274       .  A
C592        C708   1.490       .  S
C592        O596   1.277   1_556  A
C593        C753   1.486       .  S
C595        C739   1.485       .  S
C597        C624   1.487       .  S
C598        C725   1.486       .  S
C598        O599   1.275       .  A
O600        C616   1.274       .  A
O600       Zn606   2.020       .  S
C601        C641   1.487       .  S
C601        O617   1.275       .  A
C601        O614   1.272       .  A
O602        C615   1.275       .  A
O602       Cd609   2.074       .  S
O603        C621   1.275       .  A
O603       Cd612   2.065       .  S
O604        C618   1.276       .  A
O604       Cd608   2.077       .  S
O605        C616   1.276       .  A
O605       Cd608   2.074       .  S
Zn606       O617   2.015       .  S
Zn606       O619   2.020       .  S
Zn606       O611   1.942       .  S
O607        C618   1.273       .  A
O607       Cd612   2.061       .  S
Cd608       O610   2.057       .  S
Cd608       O611   1.997       .  S
Cd609       O613   2.069       .  S
Cd609       O622   2.073       .  S
Cd609       O611   2.000       .  S
O610        C620   1.274       .  A
O611       Cd612   1.993       .  S
Cd612       O614   2.055       .  S
O613        C620   1.276       .  A
C615        C694   1.489       .  S
C615        O619   1.275       .  A
C616        C655   1.490       .  S
C618        C666   1.485       .  S
C620        C627   1.486       .  S
C621        C683   1.489       .  S
C621        O622   1.275       .  A
C623        C624   1.405       .  A
C623        C628   1.399       .  A
C623        H630   1.084       .  S
C624        C625   1.413       .  A
C625        C626   1.403       .  A
C625        N632   1.432       .  S
C626        C627   1.406       .  A
C626        H631   1.084       .  S
C627        C628   1.414       .  A
C628        N629   1.433       .  S
N629        H633   1.046       .  S
N629        H634   1.046       .  S
N632        H635   1.046       .  S
N632        H636   1.046       .  S
C637        C638   1.407       .  A
C637        C642   1.400       .  A
C637        H644   1.084       .  S
C638        C639   1.413       .  A
C639        C640   1.402       .  A
C639        N646   1.432       .  S
C640        C641   1.406       .  A
C640        H645   1.083       .  S
C641        C642   1.414       .  A
C642        N643   1.433       .  S
N643        H647   1.046       .  S
N643        H648   1.046       .  S
N646        H649   1.046       .  S
N646        H650   1.046       .  S
C651        C652   1.400       .  A
C651        C656   1.404       .  A
C651        H658   1.084       .  S
C652        C653   1.410       .  A
C653        C654   1.400       .  A
C653        N660   1.433       .  S
C654        C655   1.408       .  A
C654        H659   1.084       .  S
C655        C656   1.416       .  A
C656        N657   1.432       .  S
N657        H661   1.046       .  S
N657        H662   1.046       .  S
N660        H663   1.046       .  S
N660        H664   1.045       .  S
C665        C666   1.407       .  A
C665        C670   1.403       .  A
C665        H672   1.084       .  S
C666        C667   1.415       .  A
C667        C668   1.402       .  A
C667        N674   1.433       .  S
C668        C669   1.400       .  A
C668        H673   1.084       .  S
C669        C670   1.405       .  A
C670        N671   1.432       .  S
N671        H675   1.046       .  S
N671        H676   1.045       .  S
N674        H677   1.046       .  S
N674        H678   1.046       .  S
C679        C680   1.400       .  A
C679        C684   1.403       .  A
C679        H686   1.084       .  S
C680        C681   1.404       .  A
C681        C682   1.402       .  A
C681        N688   1.432       .  S
C682        C683   1.409       .  A
C682        H687   1.083       .  S
C683        C684   1.416       .  A
C684        N685   1.432       .  S
N685        H689   1.046       .  S
N685        H690   1.046       .  S
N688        H691   1.046       .  S
N688        H692   1.045       .  S
C693        C694   1.409       .  A
C693        C698   1.400       .  A
C693        H700   1.084       .  S
C694        C695   1.415       .  A
C695        C696   1.403       .  A
C695        N702   1.432       .  S
C696        C697   1.400       .  A
C696        H701   1.084       .  S
C697        C698   1.409       .  A
C698        N699   1.432       .  S
N699        H703   1.045       .  S
N699        H704   1.046       .  S
N702        H705   1.046       .  S
N702        H706   1.046       .  S
C707        C708   1.407   1_554  A
C707        C712   1.400       .  A
C707        H714   1.084       .  S
C708        C709   1.417       .  A
C709        C710   1.403       .  A
C709        N716   1.432       .  S
C710        C711   1.399       .  A
C710        H715   1.084       .  S
C711        C712   1.411   1_556  A
C712        N713   1.433       .  S
N713        H717   1.045       .  S
N713        H718   1.046       .  S
N716        H719   1.046       .  S
N716        H720   1.046       .  S
C721        C722   1.401       .  A
C721        C726   1.404       .  A
C721        H728   1.084       .  S
C722        C723   1.410   1_556  A
C723        C724   1.398       .  A
C723        N730   1.433       .  S
C724        C725   1.408   1_554  A
C724        H729   1.084       .  S
C725        C726   1.414       .  A
C726        N727   1.432       .  S
N727        H731   1.046       .  S
N727        H732   1.046       .  S
N730        H733   1.046       .  S
N730        H734   1.045       .  S
C735        C736   1.400       .  A
C735        C740   1.401       .  A
C735        H742   1.084       .  S
C736        C737   1.417   1_554  A
C737        C738   1.401       .  A
C737        N744   1.440       .  S
C738        C739   1.406   1_556  A
C738        H743   1.084       .  S
C739        C740   1.414       .  A
C740        N741   1.433       .  S
N741        H745   1.046       .  S
N741        H746   1.046       .  S
N744        H747   1.043       .  S
N744        H748   1.045       .  S
C749        C750   1.401       .  A
C749        C754   1.405       .  A
C749        H756   1.084       .  S
C750        C751   1.409   1_554  A
C751        C752   1.396       .  A
C751        N758   1.433       .  S
C752        C753   1.407   1_556  A
C752        H757   1.084       .  S
C753        C754   1.415       .  A
C754        N755   1.432       .  S
N755        H759   1.046       .  S
N755        H760   1.046       .  S
N758        H761   1.046       .  S
N758        H762   1.045       .  S
N763        C768   1.352   1_556  A
N763        H795   1.037       .  S
N764        C772   1.350   1_554  A
N765        C770   1.352       .  A
N765        H796   1.039       .  S
N766        C774   1.351       .  A
C767        C775   1.387       .  A
C767        C783   1.413   1_554  A
C768        C784   1.414   1_554  A
C768        C776   1.387       .  A
C769        C777   1.387       .  A
C769        C786   1.414       .  A
C770        C785   1.414       .  A
C770        C778   1.387   1_556  A
C771        C783   1.411       .  A
C771        C779   1.386       .  A
C772        C786   1.411   1_556  A
C772        C780   1.386       .  A
C773        C781   1.387       .  A
C773        C784   1.413       .  A
C774        C782   1.386       .  A
C774        C785   1.413       .  A
C775        H787   1.082       .  S
C776        H788   1.082       .  S
C777        H789   1.082       .  S
C778        H790   1.082       .  S
C779        H791   1.082       .  S
C780        H792   1.082       .  S
C781        H793   1.082       .  S
C782        H794   1.082       .  S
C783        C976   1.484       .  S
C784        C990   1.484       .  S
C785       C1004   1.485       .  S
C786        C965   1.486       .  S
N797        C801   1.352       .  A
N797        H829   1.040       .  S
N798        C806   1.351   1_455  A
N799        C803   1.353       .  A
N799        H830   1.039       .  S
N800        C808   1.351   1_455  A
C801        C809   1.387       .  A
C801        C817   1.413       .  A
C802        C818   1.413       .  A
C802        C810   1.387       .  A
C803        C811   1.387       .  A
C803        C820   1.414       .  A
C804        C819   1.414       .  A
C804        C812   1.387       .  A
C805        C817   1.411       .  A
C805        C813   1.386       .  A
C806        C820   1.411       .  A
C806        C814   1.385       .  A
C807        C815   1.387       .  A
C807        C818   1.412       .  A
C808        C816   1.386       .  A
C808        C819   1.412       .  A
C809        H821   1.082       .  S
C810        H822   1.082       .  S
C811        H823   1.082       .  S
C812        H824   1.082       .  S
C813        H825   1.082       .  S
C814        H826   1.082       .  S
C815        H827   1.082       .  S
C816        H828   1.082       .  S
C817        C951   1.485       .  S
C818        C906   1.485       .  S
C819        C923   1.489       .  S
C820        C934   1.486       .  S
O831        C847   1.275   1_554  A
O831       Zn837   2.027       .  S
C832        C892   1.482       .  S
C832        O848   1.274       .  A
C832        O845   1.274       .  A
O833        C846   1.274   1_556  A
O833       Cd840   2.064       .  S
O834        C852   1.275   1_554  A
O834       Cd843   2.073       .  S
O835        C849   1.275       .  A
O835       Cd839   2.069       .  S
O836        C847   1.274       .  A
O836       Cd839   2.065       .  S
Zn837       O848   2.019       .  S
Zn837       O850   2.027       .  S
Zn837       O842   1.951   1_554  S
O838        C849   1.274   1_554  A
O838       Cd843   2.067       .  S
Cd839       O841   2.064       .  S
Cd839       O842   1.996       .  S
Cd840       O844   2.069       .  S
Cd840       O853   2.071       .  S
Cd840       O842   1.997       .  S
O841        C851   1.274       .  A
O842       Cd843   1.995   1_556  S
Cd843       O845   2.055       .  S
O844        C851   1.275       .  A
C846        C962   1.488       .  S
C846        O850   1.276       .  A
C847       C1007   1.485       .  S
C849        C993   1.485       .  S
C851        C878   1.484       .  S
C852        C979   1.485       .  S
C852        O853   1.275       .  A
O854        C870   1.274       .  A
O854       Zn860   2.020       .  S
C855        C895   1.481       .  S
C855        O871   1.274       .  A
C855        O868   1.273       .  A
O856        C869   1.274       .  A
O856       Cd863   2.066       .  S
O857        C875   1.275       .  A
O857       Cd866   2.071       .  S
O858        C872   1.276       .  A
O858       Cd862   2.072       .  S
O859        C870   1.275       .  A
O859       Cd862   2.070       .  S
Zn860       O871   2.016       .  S
Zn860       O873   2.025       .  S
Zn860       O865   1.948       .  S
O861        C872   1.273       .  A
O861       Cd866   2.066       .  S
Cd862       O864   2.073       .  S
Cd862       O865   1.999       .  S
Cd863       O867   2.060       .  S
Cd863       O876   2.076       .  S
Cd863       O865   1.993       .  S
O864        C874   1.275       .  A
O865       Cd866   1.994       .  S
Cd866       O868   2.053       .  S
O867        C874   1.275       .  A
C869        C948   1.489       .  S
C869        O873   1.276       .  A
C870        C909   1.489       .  S
C872        C920   1.491       .  S
C874        C881   1.487       .  S
C875        C937   1.493       .  S
C875        O876   1.275       .  A
C877        C878   1.406       .  A
C877        C882   1.408       .  A
C877        H884   1.083       .  S
C878        C879   1.410       .  A
C879        C880   1.399       .  A
C879        N886   1.433       .  S
C880        C881   1.405       .  A
C880        H885   1.084       .  S
C881        C882   1.417       .  A
C882        N883   1.438       .  S
N883        H887   1.046       .  S
N883        H888   1.045       .  S
N886        H889   1.046       .  S
N886        H890   1.046       .  S
C891        C892   1.404       .  A
C891        C896   1.398       .  A
C891        H898   1.084       .  S
C892        C893   1.412       .  A
C893        C894   1.404       .  A
C893        N900   1.433       .  S
C894        C895   1.405       .  A
C894        H899   1.084       .  S
C895        C896   1.412       .  A
C896        N897   1.433       .  S
N897        H901   1.046       .  S
N897        H902   1.046       .  S
N900        H903   1.046       .  S
N900        H904   1.046       .  S
C905        C906   1.401       .  A
C905        C910   1.404       .  A
C905        H912   1.084       .  S
C906        C907   1.411       .  A
C907        C908   1.398       .  A
C907        N914   1.433       .  S
C908        C909   1.407       .  A
C908        H913   1.083       .  S
C909        C910   1.416       .  A
C910        N911   1.432       .  S
N911        H915   1.046       .  S
N911        H916   1.046       .  S
N914        H917   1.046       .  S
N914        H918   1.044       .  S
C919        C920   1.408       .  A
C919        C924   1.401       .  A
C919        H926   1.083       .  S
C920        C921   1.418       .  A
C921        C922   1.405       .  A
C921        N928   1.433       .  S
C922        C923   1.401       .  A
C922        H927   1.084       .  S
C923        C924   1.406       .  A
C924        N925   1.432       .  S
N925        H929   1.045       .  S
N925        H930   1.046       .  S
N928        H931   1.046       .  S
N928        H932   1.046       .  S
C933        C934   1.400       .  A
C933        C938   1.408       .  A
C933        H940   1.084       .  S
C934        C935   1.403       .  A
C935        C936   1.402       .  A
C935        N942   1.432       .  S
C936        C937   1.409       .  A
C936        H941   1.083       .  S
C937        C938   1.421       .  A
C938        N939   1.438       .  S
N939        H943   1.046       .  S
N939        H944   1.045       .  S
N942        H945   1.045       .  S
N942        H946   1.046       .  S
C947        C948   1.407       .  A
C947        C952   1.401       .  A
C947        H954   1.084       .  S
C948        C949   1.415       .  A
C949        C950   1.403       .  A
C949        N956   1.433       .  S
C950        C951   1.400       .  A
C950        H955   1.084       .  S
C951        C952   1.415       .  A
C952        N953   1.439       .  S
N953        H957   1.045       .  S
N953        H958   1.043       .  S
N956        H959   1.046       .  S
N956        H960   1.046       .  S
C961        C962   1.408       .  A
C961        C966   1.400       .  A
C961        H968   1.084       .  S
C962        C963   1.416   1_554  A
C963        C964   1.403       .  A
C963        N970   1.433       .  S
C964        C965   1.400   1_556  A
C964        H969   1.084       .  S
C965        C966   1.411       .  A
C966        N967   1.432       .  S
N967        H971   1.045       .  S
N967        H972   1.046       .  S
N970        H973   1.046       .  S
N970        H974   1.046       .  S
C975        C976   1.400       .  A
C975        C980   1.403       .  A
C975        H982   1.084       .  S
C976        C977   1.410   1_556  A
C977        C978   1.400       .  A
C977        N984   1.432       .  S
C978        C979   1.407   1_554  A
C978        H983   1.084       .  S
C979        C980   1.414       .  A
C980        N981   1.432       .  S
N981        H985   1.046       .  S
N981        H986   1.046       .  S
N984        H987   1.045       .  S
N984        H988   1.045       .  S
C989        C990   1.400   1_554  A
C989        C994   1.401       .  A
C989        H996   1.084       .  S
C990        C991   1.416       .  A
C991        C992   1.402       .  A
C991        N998   1.439       .  S
C992        C993   1.407       .  A
C992        H997   1.084       .  S
C993        C994   1.413   1_556  A
C994        N995   1.432       .  S
N995        H999   1.046       .  S
N995       H1000   1.046       .  S
N998       H1001   1.043       .  S
N998       H1002   1.045       .  S
C1003      C1004   1.401   1_554  A
C1003      C1008   1.404       .  A
C1003      H1010   1.084       .  S
C1004      C1005   1.410       .  A
C1005      C1006   1.399       .  A
C1005      N1012   1.433       .  S
C1006      C1007   1.407       .  A
C1006      H1011   1.084       .  S
C1007      C1008   1.413   1_556  A
C1008      N1009   1.432       .  S
N1009      H1013   1.046       .  S
N1009      H1014   1.046       .  S
N1012      H1015   1.046       .  S
N1012      H1016   1.045       .  S
