geometry optimzed in LAMMPS
_audit_creation_date              2020-11-30 
_audit_creation_method            'lammps2cif' 
_symmetry_space_group_name_H-M    'P1' 
_symmetry_Int_Tables_number       1 
_symmetry_cell_setting            triclinic 
loop_ 
_symmetry_equiv_pos_as_xyz 
  x,y,z 
_cell_length_a                    36.98507372 
_cell_length_b                    36.405079733082566 
_cell_length_c                    26.650318720776223 
_cell_angle_alpha                 90.37488677843308 
_cell_angle_beta                  91.20789336315016 
_cell_angle_gamma                 89.88340904745677 
loop_ 
_atom_site_label 
_atom_site_type_symbol 
_atom_site_fract_x 
_atom_site_fract_y 
_atom_site_fract_z 
_atom_site_charge 
N1          N  0.05280216  0.99861247  0.00378133    -0.36900
N2          N  0.49830988  0.05504334  0.99311336    -0.57500
N3          N  0.44258068  0.99928791  0.99708176    -0.36900
N4          N  0.49722149  0.44268835  0.01368997    -0.57500
C5          C  0.07277056  0.02924699  0.01202616     0.26700
C6          C  0.07215535  0.46987179  0.02178882     0.26700
C7          C  0.42291687  0.03025386  0.00350206     0.26700
C8          C  0.42229082  0.47084318  0.01252086     0.26700
C9          C  0.02781107  0.07445886  0.98058408     0.35300
C10         C  0.46931008  0.07488706  0.97773925     0.35300
C11         C  0.02656534  0.42126535  0.00602803     0.35300
C12         C  0.46796173  0.42172945  0.00237762     0.35300
C13         C  0.10503197  0.01989273  0.03624561    -0.22200
C14         C  0.10467128  0.48236542  0.04229838    -0.22200
C15         C  0.38979350  0.02142393  0.02367360    -0.22200
C16         C  0.38939010  0.48386307  0.02933257    -0.22200
C17         C  0.01750795  0.10664578  0.95665045    -0.23300
C18         C  0.48033858  0.10699739  0.95508923    -0.23300
C19         C  0.01588169  0.38658235  0.98999835    -0.23300
C20         C  0.47876263  0.38687547  0.98770392    -0.23300
C21         C  0.06359480  0.06482992  0.99474472    -0.18600
C22         C  0.06275202  0.43251184  0.01496955    -0.18600
C23         C  0.43167028  0.43336155  0.00735137    -0.18600
C24         C  0.43322066  0.06577348  0.98820894    -0.18600
H25         H  0.12687635  0.03808102  0.04754013     0.14300
H26         H  0.12621167  0.46602259  0.05892132     0.14300
H27         H  0.36794265  0.04001364  0.03260070     0.14300
H28         H  0.36718755  0.46790601  0.04345931     0.14300
H29         H  0.03490939  0.12792270  0.94256659     0.12600
H30         H  0.46336459  0.12857653  0.93966970     0.12600
H31         H  0.03295818  0.36354735  0.98034572     0.12600
H32         H  0.46174581  0.36410878  0.97600954     0.12600
H33         H  0.02960324  0.99671418  0.98106279     0.25800
H34         H  0.46653048  0.99711765  0.97737401     0.25800
N35         N  0.05708727  0.00137854  0.50155889    -0.36900
N36         N  0.50119110  0.05748751  0.50545288    -0.57500
N37         N  0.44626725  0.00031308  0.51258713    -0.36900
N38         N  0.50196092  0.44419718  0.50049243    -0.57500
C39         C  0.07683199  0.03154038  0.49107307     0.26700
C40         C  0.07741922  0.47165740  0.49018789     0.26700
C41         C  0.42515823  0.03030923  0.50514180     0.26700
C42         C  0.42558961  0.47045965  0.50212119     0.26700
C43         C  0.03061412  0.07929393  0.51042972     0.35300
C44         C  0.47233899  0.07862603  0.51659787     0.35300
C45         C  0.03174529  0.42279628  0.50518862     0.35300
C46         C  0.47334614  0.42224312  0.50914087     0.35300
C47         C  0.11022622  0.02075794  0.47320767    -0.22200
C48         C  0.11064654  0.48302556  0.47285951    -0.22200
C49         C  0.39055961  0.01932806  0.49076382    -0.22200
C50         C  0.39084072  0.48164190  0.48881600    -0.22200
C51         C  0.02037251  0.11440000  0.52485373    -0.23300
C52         C  0.48345372  0.11398758  0.52865951    -0.23300
C53         C  0.02196332  0.38708908  0.51645055    -0.23300
C54         C  0.48497967  0.38673331  0.51888691    -0.23300
C55         C  0.06638850  0.06850669  0.49963957    -0.18600
C56         C  0.06756309  0.43453412  0.49718261    -0.18600
C57         C  0.43672647  0.43331073  0.50579859    -0.18600
C58         C  0.43588539  0.06735356  0.51196068    -0.18600
H59         H  0.13219147  0.03822502  0.46183392     0.14300
H60         H  0.13295138  0.46591584  0.46117470     0.14300
H61         H  0.36747688  0.03664591  0.48209609     0.14300
H62         H  0.36801801  0.46446394  0.47836278     0.14300
H63         H  0.03762521  0.13796506  0.53162249     0.12600
H64         H  0.46666629  0.13718207  0.53866608     0.12600
H65         H  0.03959390  0.36366740  0.52224024     0.12600
H66         H  0.46856073  0.36300915  0.52697165     0.12600
H67         H  0.03289637  0.00099385  0.52052200     0.25800
H68         H  0.47216920  0.00013443  0.52838080     0.25800
O69         O  0.17354498  0.20334142  0.02177019    -0.78800
C70         C  0.24970686  0.24607849  0.13599605     0.82200
O71         O  0.20146980  0.32692884  0.97258233    -0.79900
O72         O  0.32257019  0.29442945  0.02665239    -0.81400
O73         O  0.29364161  0.17380706  0.95985152    -0.81200
O74         O  0.20253456  0.17182281  0.96311204    -0.79800
Zn75       Zn  0.20464230  0.24759450  0.03838022     1.55700
O76         O  0.32370820  0.20303048  0.02132429    -0.81200
Cd77       Cd  0.24687014  0.20492550  0.95027824     1.59700
Cd78       Cd  0.24590412  0.29490216  0.95437159     1.59600
O79         O  0.24419059  0.22097088  0.87622238    -0.81200
O80         O  0.24672706  0.24897968  0.99563089    -1.91700
Cd81       Cd  0.29185776  0.24810836  0.03805117     1.59900
O82         O  0.24308223  0.28220244  0.87803024    -0.81200
O83         O  0.27972867  0.24706204  0.11340798    -0.79800
C84         C  0.17587642  0.32220567  0.00326679     0.82700
C85         C  0.17587879  0.17573577  0.99227558     0.82400
O86         O  0.21961209  0.24542881  0.11177597    -0.78800
C87         C  0.32100524  0.17679502  0.98953305     0.83200
O88         O  0.17405413  0.29330397  0.02983591    -0.78900
C89         C  0.24298091  0.25179825  0.85383012     0.83300
C90         C  0.31924186  0.32239186  0.99840622     0.83600
O91         O  0.29207125  0.32631073  0.96854757    -0.81300
O92         O  0.17737409  0.29705911  0.46333191    -0.78800
C93         C  0.25067323  0.24958738  0.35362132     0.82200
O94         O  0.20565936  0.17535487  0.52225488    -0.79900
O95         O  0.32612020  0.20399770  0.46874357    -0.81400
O96         O  0.29777656  0.32598516  0.52797619    -0.81200
O97         O  0.20718478  0.32793455  0.52352516    -0.79800
Zn98       Zn  0.20714249  0.25121951  0.45040798     1.55700
O99         O  0.32657490  0.29609301  0.46743009    -0.81200
Cd100      Cd  0.25152614  0.29541663  0.53848602     1.59700
Cd101      Cd  0.25043686  0.20695452  0.53818245     1.59600
O102        O  0.24903006  0.28215651  0.61364580    -0.81200
O103        O  0.25033907  0.25097201  0.49408665    -1.91700
Cd104      Cd  0.29485448  0.25013671  0.45281684     1.59900
O105        O  0.24779858  0.22109796  0.61326848    -0.81200
O106        O  0.28106534  0.24962192  0.37714983    -0.79800
C107        C  0.17832901  0.17930740  0.49289233     0.82700
C108        C  0.18032732  0.32450260  0.49317769     0.82400
O109        O  0.22086191  0.25012683  0.37691477    -0.78800
C110        C  0.32428995  0.32281553  0.49842770     0.83200
O111        O  0.17535107  0.20684488  0.46367019    -0.78900
C112        C  0.24737240  0.25170108  0.63671860     0.83300
C113        C  0.32329342  0.17782154  0.50004866     0.83600
O114        O  0.29636594  0.17540410  0.52891175    -0.81300
C115        C  0.23937106  0.28499607  0.77138144    -0.13700
C116        C  0.24223704  0.25194495  0.79816191     0.08500
C117        C  0.24562173  0.21880045  0.77121995    -0.13700
C118        C  0.24694107  0.21874017  0.71890392    -0.13700
C119        C  0.24491293  0.25182337  0.69215192     0.08500
C120        C  0.24070663  0.28493398  0.71893641    -0.13700
H121        H  0.23649671  0.31096913  0.79094078     0.12500
H122        H  0.24784353  0.19280768  0.79058012     0.12500
H123        H  0.25004803  0.19273763  0.69948074     0.12500
H124        H  0.23868892  0.31087391  0.69940908     0.12500
C125        C  0.21758223  0.24191743  0.21795881    -0.13700
C126        C  0.24984339  0.24639237  0.19167005     0.08500
C127        C  0.28223416  0.25209439  0.21912856    -0.13700
C128        C  0.28240115  0.25325293  0.27155773    -0.13700
C129        C  0.25018553  0.24873942  0.29790902     0.08500
C130        C  0.21774702  0.24310369  0.27048353    -0.13700
H131        H  0.19215668  0.23748523  0.19795977     0.12500
H132        H  0.30752419  0.25594339  0.20011142     0.12500
H133        H  0.30784073  0.25784613  0.29144851     0.12500
H134        H  0.19247679  0.23940812  0.28959835     0.12500
C135        C  0.12484243  0.35396002  0.45532475    -0.13700
C136        C  0.15168941  0.35292331  0.49343956     0.08500
C137        C  0.15063508  0.37901997  0.53257785    -0.13700
C138        C  0.12326285  0.40543580  0.53368627    -0.13700
C139        C  0.09656194  0.40635814  0.49563674     0.08500
C140        C  0.09756422  0.38058096  0.45633561    -0.13700
H141        H  0.12497908  0.33429237  0.42467268     0.12500
H142        H  0.17075698  0.37881905  0.56269225     0.12500
H143        H  0.12276873  0.42513252  0.56431305     0.12300
H144        H  0.07716552  0.38109217  0.42658679     0.12500
C145        C  0.38248845  0.40298731  0.54207252    -0.13700
C146        C  0.40832579  0.40441728  0.50436567     0.08500
C147        C  0.40655768  0.37888508  0.46471273    -0.13700
C148        C  0.37938473  0.35223629  0.46285409    -0.13700
C149        C  0.35325466  0.35088415  0.50039428     0.08500
C150        C  0.35511172  0.37659338  0.54001261    -0.13700
H151        H  0.38346314  0.42248761  0.57294388     0.12500
H152        H  0.42614664  0.37976216  0.43509933     0.12500
H153        H  0.37863901  0.33293079  0.43176688     0.12500
H154        H  0.33551305  0.37621333  0.56962208     0.12500
C155        C  0.40567591  0.12046940  0.46921566    -0.13700
C156        C  0.40743691  0.09622393  0.50988000     0.08500
C157        C  0.38149561  0.09878634  0.54737088    -0.13700
C158        C  0.35403216  0.12519174  0.54408089    -0.13700
C159        C  0.35218248  0.14961175  0.50334142     0.08500
C160        C  0.37839584  0.14700291  0.46603213    -0.13700
H161        H  0.42534212  0.11861098  0.43975238     0.12500
H162        H  0.38245937  0.08021169  0.57895990     0.12500
H163        H  0.33437178  0.12661214  0.57357603     0.12500
H164        H  0.37765177  0.16525635  0.43410940     0.12500
C165        C  0.12393017  0.09668439  0.53185521    -0.13700
C166        C  0.09473399  0.09736914  0.49753951     0.08500
C167        C  0.09287194  0.12523261  0.46132895    -0.13700
C168        C  0.11991341  0.15206610  0.45959451    -0.13700
C169        C  0.14940697  0.15119604  0.49378995     0.08500
C170        C  0.15103158  0.12316293  0.52988665    -0.13700
H171        H  0.12574741  0.07548035  0.56013013     0.12500
H172        H  0.07050780  0.12611335  0.43445874     0.12500
H173        H  0.11782500  0.17331310  0.43142858     0.12500
H174        H  0.17321327  0.12172713  0.55697790     0.12500
C175        C  0.09169620  0.37338295  0.04464434    -0.13700
C176        C  0.09239139  0.40464185  0.01404884     0.08500
C177        C  0.12125617  0.40912225  0.98125046    -0.13700
C178        C  0.14857939  0.38270198  0.97841416    -0.13700
C179        C  0.14751637  0.35089646  0.00795795     0.08500
C180        C  0.11888693  0.34667629  0.04146260    -0.13700
H181        H  0.06987249  0.36948319  0.07054229     0.12500
H182        H  0.12236436  0.43296488  0.95723277     0.12500
H183        H  0.17028557  0.38699343  0.95246983     0.12500
H184        H  0.11733166  0.32261912  0.06499595     0.12500
C185        C  0.37318994  0.40847625  0.97147088    -0.13700
C186        C  0.40225035  0.40537308  0.00602796     0.08500
C187        C  0.40353395  0.37515566  0.03845471    -0.13700
C188        C  0.37673808  0.34816799  0.03567627    -0.13700
C189        C  0.34770352  0.35107082  0.00089937     0.08500
C190        C  0.34611139  0.38170433  0.96905960    -0.13700
H191        H  0.37167589  0.43151281  0.94599146     0.12500
H192        H  0.42550797  0.37232445  0.06567869     0.12500
H193        H  0.37876750  0.32504599  0.06093954     0.12500
H194        H  0.32410316  0.38487057  0.94198405     0.12500
C195        C  0.37657437  0.09360896  0.95130123    -0.13700
C196        C  0.40539973  0.09520396  0.98630844     0.08500
C197        C  0.40700641  0.12415763  0.02117618    -0.13700
C198        C  0.37980897  0.15081139  0.02178165    -0.13700
C199        C  0.35042138  0.14906029  0.98743809     0.08500
C200        C  0.34932740  0.12035721  0.95176407    -0.13700
H201        H  0.37502259  0.07142401  0.92406257     0.12500
H202        H  0.42902759  0.12568822  0.04855688     0.12500
H203        H  0.38159526  0.17253175  0.04966602     0.12500
H204        H  0.32723887  0.11832189  0.92457646     0.12500
C205        C  0.12352717  0.08787999  0.96528615    -0.13700
C206        C  0.09227009  0.09347438  0.99336740     0.08500
C207        C  0.08848655  0.12635664  0.02056867    -0.13700
C208        C  0.11547371  0.15314216  0.01985047    -0.13700
C209        C  0.14697261  0.14753402  0.99211646     0.08500
C210        C  0.15063407  0.11462374  0.96467328    -0.13700
H211        H  0.12693466  0.06272972  0.94394835     0.12500
H212        H  0.06464528  0.13117899  0.04261132     0.12500
H213        H  0.11168645  0.17821113  0.04120717     0.12500
H214        H  0.17454921  0.10940484  0.94296592     0.12500
N215        N  0.05280227  0.49861262  0.00378171    -0.36900
N216        N  0.49830976  0.55504340  0.99311374    -0.57500
N217        N  0.44258075  0.49928771  0.99708175    -0.36900
N218        N  0.49722125  0.94268841  0.01369014    -0.57500
C219        C  0.07277052  0.52924723  0.01202641     0.26700
C220        C  0.07215518  0.96987155  0.02178831     0.26700
C221        C  0.42291692  0.53025357  0.00350253     0.26700
C222        C  0.42229057  0.97084351  0.01252094     0.26700
C223        C  0.02781091  0.57445885  0.98058396     0.35300
C224        C  0.46930987  0.57488685  0.97773931     0.35300
C225        C  0.02656495  0.92126525  0.00602807     0.35300
C226        C  0.46796136  0.92172954  0.00237833     0.35300
C227        C  0.10503196  0.51989312  0.03624596    -0.22200
C228        C  0.10467113  0.98236503  0.04229788    -0.22200
C229        C  0.38979372  0.52142347  0.02367451    -0.22200
C230        C  0.38938976  0.98386358  0.02933207    -0.22200
C231        C  0.01750768  0.60664554  0.95664984    -0.23300
C232        C  0.48033822  0.60699705  0.95508882    -0.23300
C233        C  0.01588107  0.88658223  0.98999882    -0.23300
C234        C  0.47876208  0.88687541  0.98770503    -0.23300
C235        C  0.06359466  0.56483008  0.99474468    -0.18600
C236        C  0.06275174  0.93251163  0.01496905    -0.18600
C237        C  0.43166995  0.93336181  0.00735208    -0.18600
C238        C  0.43322050  0.56577321  0.98820923    -0.18600
H239        H  0.12687630  0.53808150  0.04754032     0.14300
H240        H  0.12621139  0.96602208  0.05892089     0.14300
H241        H  0.36794290  0.54001309  0.03260213     0.14300
H242        H  0.36718708  0.96790669  0.04345877     0.14300
H243        H  0.03490902  0.62792240  0.94256560     0.12600
H244        H  0.46336407  0.62857595  0.93966896     0.12600
H245        H  0.03295739  0.86354711  0.98034615     0.12600
H246        H  0.46174515  0.86410869  0.97601114     0.12600
H247        H  0.02960338  0.49671421  0.98106298     0.25800
H248        H  0.46653041  0.49711758  0.97737356     0.25800
N249        N  0.05708709  0.50137849  0.50155851    -0.36900
N250        N  0.50119128  0.55748750  0.50545289    -0.57500
N251        N  0.44626712  0.50031313  0.51258662    -0.36900
N252        N  0.50196128  0.94419728  0.50049353    -0.57500
C253        C  0.07683206  0.53154029  0.49107321     0.26700
C254        C  0.07741936  0.97165749  0.49018805     0.26700
C255        C  0.42515822  0.53030939  0.50514150     0.26700
C256        C  0.42558985  0.97045950  0.50212187     0.26700
C257        C  0.03061426  0.57929397  0.51042973     0.35300
C258        C  0.47233919  0.57862607  0.51659784     0.35300
C259        C  0.03174569  0.92279635  0.50518981     0.35300
C260        C  0.47334655  0.92224317  0.50914196     0.35300
C261        C  0.11022644  0.52075775  0.47320847    -0.22200
C262        C  0.11064644  0.98302573  0.47285885    -0.22200
C263        C  0.39055956  0.51932838  0.49076350    -0.22200
C264        C  0.39084091  0.98164158  0.48881663    -0.22200
C265        C  0.02037268  0.61440006  0.52485377    -0.23300
C266        C  0.48345398  0.61398760  0.52865951    -0.23300
C267        C  0.02196383  0.88708916  0.51645189    -0.23300
C268        C  0.48498015  0.88673342  0.51888814    -0.23300
C269        C  0.06638865  0.56850663  0.49963974    -0.18600
C270        C  0.06756343  0.93453422  0.49718334    -0.18600
C271        C  0.43672687  0.93331063  0.50579938    -0.18600
C272        C  0.43588554  0.56735367  0.51196060    -0.18600
H273        H  0.13219192  0.53822476  0.46183531     0.14300
H274        H  0.13295120  0.96591608  0.46117359     0.14300
H275        H  0.36747685  0.53664632  0.48209604     0.14300
H276        H  0.36801829  0.96446349  0.47836345     0.14300
H277        H  0.03762538  0.63796512  0.53162254     0.12600
H278        H  0.46666660  0.63718212  0.53866614     0.12600
H279        H  0.03959453  0.86366757  0.52224155     0.12600
H280        H  0.46856126  0.86300920  0.52697275     0.12600
H281        H  0.03289606  0.50099379  0.52052107     0.25800
H282        H  0.47216904  0.50013433  0.52838033     0.25800
O283        O  0.17354478  0.70334160  0.02176981    -0.78800
C284        C  0.24970663  0.74607843  0.13599596     0.82200
O285        O  0.20146992  0.82692881  0.97258209    -0.79900
O286        O  0.32257013  0.79442943  0.02665287    -0.81400
O287        O  0.29364160  0.67380700  0.95985120    -0.81200
O288        O  0.20253452  0.67182275  0.96311205    -0.79800
Zn289      Zn  0.20464224  0.74759459  0.03838006     1.55700
O290        O  0.32370821  0.70303039  0.02132397    -0.81200
Cd291      Cd  0.24687010  0.70492545  0.95027819     1.59700
Cd292      Cd  0.24590431  0.79490210  0.95437159     1.59600
O293        O  0.24419037  0.72097084  0.87622232    -0.81200
O294        O  0.24672709  0.74897962  0.99563088    -1.91700
Cd295      Cd  0.29185775  0.74810817  0.03805117     1.59900
O296        O  0.24308231  0.78220240  0.87803027    -0.81200
O297        O  0.27972847  0.74706167  0.11340791    -0.79800
C298        C  0.17587644  0.82220563  0.00326641     0.82700
C299        C  0.17587864  0.67573586  0.99227536     0.82400
O300        O  0.21961186  0.74542902  0.11177587    -0.78800
C301        C  0.32100525  0.67679497  0.98953269     0.83200
O302        O  0.17405413  0.79330395  0.02983554    -0.78900
C303        C  0.24298077  0.75179824  0.85383011     0.83300
C304        C  0.31924182  0.82239187  0.99840674     0.83600
O305        O  0.29207139  0.82631066  0.96854779    -0.81300
O306        O  0.17737408  0.79705899  0.46333222    -0.78800
C307        C  0.25067310  0.74958748  0.35362134     0.82200
O308        O  0.20565971  0.67535482  0.52225510    -0.79900
O309        O  0.32612040  0.70399793  0.46874354    -0.81400
O310        O  0.29777686  0.82598519  0.52797645    -0.81200
O311        O  0.20718520  0.82793466  0.52352485    -0.79800
Zn312      Zn  0.20714256  0.75121948  0.45040827     1.55700
O313        O  0.32657500  0.79609316  0.46743005    -0.81200
Cd314      Cd  0.25152638  0.79541677  0.53848606     1.59700
Cd315      Cd  0.25043712  0.70695468  0.53818265     1.59600
O316        O  0.24902985  0.78215673  0.61364581    -0.81200
O317        O  0.25033924  0.75097214  0.49408685    -1.91700
Cd318      Cd  0.29485453  0.75013690  0.45281682     1.59900
O319        O  0.24779883  0.72109816  0.61326857    -0.81200
O320        O  0.28106524  0.74962215  0.37714979    -0.79800
C321        C  0.17832928  0.67930730  0.49289265     0.82700
C322        C  0.18032757  0.82450261  0.49317773     0.82400
O323        O  0.22086182  0.75012681  0.37691490    -0.78800
C324        C  0.32429019  0.82281558  0.49842787     0.83200
O325        O  0.17535123  0.70684480  0.46367056    -0.78900
C326        C  0.24737234  0.75170129  0.63671863     0.83300
C327        C  0.32329366  0.67782177  0.50004867     0.83600
O328        O  0.29636622  0.67540434  0.52891181    -0.81300
C329        C  0.23937106  0.78499621  0.77138151    -0.13700
C330        C  0.24223675  0.75194501  0.79816189     0.08500
C331        C  0.24562099  0.71880049  0.77121986    -0.13700
C332        C  0.24694042  0.71874030  0.71890384    -0.13700
C333        C  0.24491269  0.75182355  0.69215193     0.08500
C334        C  0.24070663  0.78493415  0.71893647    -0.13700
H335        H  0.23649698  0.81096929  0.79094091     0.12500
H336        H  0.24784242  0.69280764  0.79057995     0.12500
H337        H  0.25004714  0.69273776  0.69948059     0.12500
H338        H  0.23868919  0.81087411  0.69940916     0.12500
C339        C  0.21758192  0.74191816  0.21795874    -0.13700
C340        C  0.24984317  0.74639237  0.19166998     0.08500
C341        C  0.28223403  0.75209383  0.21912850    -0.13700
C342        C  0.28240103  0.75325247  0.27155767    -0.13700
C343        C  0.25018535  0.74873952  0.29790899     0.08500
C344        C  0.21774674  0.74310442  0.27048346    -0.13700
H345        H  0.19215629  0.73748654  0.19795968     0.12500
H346        H  0.30752414  0.75594233  0.20011138     0.12500
H347        H  0.30784068  0.75784534  0.29144843     0.12500
H348        H  0.19247641  0.73940941  0.28959823     0.12500
C349        C  0.12484258  0.85396005  0.45532525    -0.13700
C350        C  0.15168977  0.85292341  0.49343972     0.08500
C351        C  0.15063574  0.87902022  0.53257784    -0.13700
C352        C  0.12326353  0.90543606  0.53368648    -0.13700
C353        C  0.09656235  0.90635829  0.49563730     0.08500
C354        C  0.09756438  0.88058097  0.45633634    -0.13700
H355        H  0.12497901  0.83429235  0.42467326     0.12500
H356        H  0.17075784  0.87881941  0.56269198     0.12500
H357        H  0.12276964  0.92513285  0.56431317     0.12300
H358        H  0.07716550  0.88109204  0.42658778     0.12500
C359        C  0.38248923  0.90298675  0.54207355    -0.13700
C360        C  0.40832631  0.90441705  0.50436639     0.08500
C361        C  0.40655800  0.87888512  0.46471312    -0.13700
C362        C  0.37938499  0.85223636  0.46285436    -0.13700
C363        C  0.35325505  0.85088405  0.50039471     0.08500
C364        C  0.35511239  0.87659293  0.54001346    -0.13700
H365        H  0.38346420  0.92248679  0.57294521     0.12500
H366        H  0.42614679  0.87976242  0.43509950     0.12500
H367        H  0.37863906  0.83293108  0.43176690     0.12500
H368        H  0.33551388  0.87621271  0.56962312     0.12500
C369        C  0.40567583  0.62046926  0.46921529    -0.13700
C370        C  0.40743714  0.59622414  0.50988002     0.08500
C371        C  0.38149616  0.59878691  0.54737129    -0.13700
C372        C  0.35403277  0.62519239  0.54408135    -0.13700
C373        C  0.35218271  0.64961196  0.50334140     0.08500
C374        C  0.37839567  0.64700268  0.46603162    -0.13700
H375        H  0.42534179  0.61861056  0.43975172     0.12500
H376        H  0.38246017  0.58021252  0.57896060     0.12500
H377        H  0.33437272  0.62661321  0.57357690     0.12500
H378        H  0.37765121  0.66525570  0.43410844     0.12500
C379        C  0.12393026  0.59668439  0.53185582    -0.13700
C380        C  0.09473420  0.59736905  0.49753990     0.08500
C381        C  0.09287224  0.62523249  0.46132930    -0.13700
C382        C  0.11991372  0.65206595  0.45959486    -0.13700
C383        C  0.14940723  0.65119592  0.49379038     0.08500
C384        C  0.15103173  0.62316290  0.52988724    -0.13700
H385        H  0.12574740  0.57548042  0.56013085     0.12500
H386        H  0.07050815  0.62611324  0.43445903     0.12500
H387        H  0.11782536  0.67331288  0.43142884     0.12500
H388        H  0.17321338  0.62172714  0.55697856     0.12500
C389        C  0.09169592  0.87338260  0.04464354    -0.13700
C390        C  0.09239110  0.90464158  0.01404819     0.08500
C391        C  0.12125608  0.90912216  0.98125015    -0.13700
C392        C  0.14857942  0.88270199  0.97841395    -0.13700
C393        C  0.14751632  0.85089635  0.00795748     0.08500
C394        C  0.11888673  0.84667602  0.04146186    -0.13700
H395        H  0.06987217  0.86948269  0.07054138     0.12500
H396        H  0.12236440  0.93296490  0.95723267     0.12500
H397        H  0.17028575  0.88699359  0.95246993     0.12500
H398        H  0.11733139  0.82261879  0.06499509     0.12500
C399        C  0.37318982  0.90847622  0.97147132    -0.13700
C400        C  0.40224991  0.90537342  0.00602899     0.08500
C401        C  0.40353316  0.87515637  0.03845642    -0.13700
C402        C  0.37673739  0.84816861  0.03567792    -0.13700
C403        C  0.34770326  0.85107101  0.00090028     0.08500
C404        C  0.34611135  0.88170425  0.96906001    -0.13700
H405        H  0.37167604  0.93151247  0.94599135     0.12500
H406        H  0.42550689  0.87232544  0.06568090     0.12500
H407        H  0.37876662  0.82504682  0.06094159     0.12500
H408        H  0.32410343  0.88487014  0.94198389     0.12500
C409        C  0.37657365  0.59360809  0.95130220    -0.13700
C410        C  0.40539945  0.59520359  0.98630869     0.08500
C411        C  0.40700658  0.62415780  0.02117558    -0.13700
C412        C  0.37980924  0.65081167  0.02178084    -0.13700
C413        C  0.35042133  0.64906019  0.98743784     0.08500
C414        C  0.34932683  0.62035651  0.95176474    -0.13700
H415        H  0.37502143  0.57142266  0.92406431     0.12500
H416        H  0.42902805  0.62568874  0.04855577     0.12500
H417        H  0.38159589  0.67253243  0.04966460     0.12500
H418        H  0.32723797  0.61832084  0.92457769     0.12500
C419        C  0.12352710  0.58787999  0.96528634    -0.13700
C420        C  0.09226986  0.59347459  0.99336717     0.08500
C421        C  0.08848611  0.62635708  0.02056787    -0.13700
C422        C  0.11547330  0.65314255  0.01984964    -0.13700
C423        C  0.14697241  0.64753417  0.99211616     0.08500
C424        C  0.15063402  0.61462371  0.96467343    -0.13700
H425        H  0.12693469  0.56272955  0.94394893     0.12500
H426        H  0.06464469  0.63117964  0.04261015     0.12500
H427        H  0.11168591  0.67821170  0.04120590     0.12500
H428        H  0.17454927  0.60940467  0.94296636     0.12500
N429        N  0.55280217  0.99861244  0.00378142    -0.36900
N430        N  0.99830990  0.05504335  0.99311339    -0.57500
N431        N  0.94258066  0.99928796  0.99708178    -0.36900
N432        N  0.99722151  0.44268835  0.01368975    -0.57500
C433        C  0.57277059  0.02924698  0.01202610     0.26700
C434        C  0.57215535  0.46987183  0.02178880     0.26700
C435        C  0.92291697  0.03025391  0.00350243     0.26700
C436        C  0.92229086  0.47084319  0.01252058     0.26700
C437        C  0.52781105  0.07445879  0.98058392     0.35300
C438        C  0.96931009  0.07488709  0.97773937     0.35300
C439        C  0.52656531  0.42126538  0.00602812     0.35300
C440        C  0.96796175  0.42172945  0.00237738     0.35300
C441        C  0.60503204  0.01989276  0.03624553    -0.22200
C442        C  0.60467129  0.48236545  0.04229832    -0.22200
C443        C  0.88979368  0.02142397  0.02367426    -0.22200
C444        C  0.88939018  0.48386309  0.02933241    -0.22200
C445        C  0.51750794  0.10664565  0.95665016    -0.23300
C446        C  0.98033858  0.10699748  0.95508949    -0.23300
C447        C  0.51588166  0.38658239  0.98999842    -0.23300
C448        C  0.97876265  0.38687547  0.98770370    -0.23300
C449        C  0.56359478  0.06482987  0.99474456    -0.18600
C450        C  0.56275200  0.43251189  0.01496957    -0.18600
C451        C  0.93167028  0.43336156  0.00735110    -0.18600
C452        C  0.93322068  0.06577352  0.98820917    -0.18600
H453        H  0.62687644  0.03808105  0.04753993     0.14300
H454        H  0.62621169  0.46602263  0.05892127     0.14300
H455        H  0.86794287  0.04001367  0.03260164     0.14300
H456        H  0.86718769  0.46790601  0.04345928     0.14300
H457        H  0.53490939  0.12792251  0.94256617     0.12600
H458        H  0.96336454  0.12857666  0.93967015     0.12600
H459        H  0.53295815  0.36354740  0.98034572     0.12600
H460        H  0.96174581  0.36410883  0.97600918     0.12600
H461        H  0.52960322  0.99671414  0.98106307     0.25800
H462        H  0.96653035  0.99711768  0.97737347     0.25800
N463        N  0.55708721  0.00137860  0.50155886    -0.36900
N464        N  0.00119108  0.05748750  0.50545280    -0.57500
N465        N  0.94626720  0.00031307  0.51258710    -0.36900
N466        N  0.00196095  0.44419726  0.50049250    -0.57500
C467        C  0.57683197  0.03154045  0.49107311     0.26700
C468        C  0.57741928  0.47165738  0.49018798     0.26700
C469        C  0.92515818  0.03030922  0.50514180     0.26700
C470        C  0.92558964  0.47045971  0.50212124     0.26700
C471        C  0.53061412  0.07929397  0.51042988     0.35300
C472        C  0.97233899  0.07862603  0.51659786     0.35300
C473        C  0.53174529  0.42279621  0.50518849     0.35300
C474        C  0.97334616  0.42224321  0.50914088     0.35300
C475        C  0.61022620  0.02075801  0.47320784    -0.22200
C476        C  0.61064660  0.48302557  0.47285959    -0.22200
C477        C  0.89055956  0.01932801  0.49076390    -0.22200
C478        C  0.89084072  0.48164191  0.48881617    -0.22200
C479        C  0.52037245  0.11440004  0.52485382    -0.23300
C480        C  0.98345377  0.11398757  0.52865951    -0.23300
C481        C  0.52196336  0.38708901  0.51645047    -0.23300
C482        C  0.98497963  0.38673339  0.51888691    -0.23300
C483        C  0.56638852  0.06850676  0.49963975    -0.18600
C484        C  0.56756310  0.43453408  0.49718255    -0.18600
C485        C  0.93672651  0.43331082  0.50579860    -0.18600
C486        C  0.93588535  0.06735356  0.51196068    -0.18600
H487        H  0.63219148  0.03822508  0.46183418     0.14300
H488        H  0.63295139  0.46591586  0.46117460     0.14300
H489        H  0.86747677  0.03664581  0.48209628     0.14300
H490        H  0.86801802  0.46446390  0.47836309     0.14300
H491        H  0.53762512  0.13796513  0.53162248     0.12600
H492        H  0.96666640  0.13718209  0.53866615     0.12600
H493        H  0.53959399  0.36366738  0.52224029     0.12600
H494        H  0.96856066  0.36300923  0.52697156     0.12600
H495        H  0.53289638  0.00099388  0.52052191     0.25800
H496        H  0.97216917  0.00013442  0.52838081     0.25800
O497        O  0.67354489  0.20334144  0.02177019    -0.78800
C498        C  0.74970680  0.24607829  0.13599614     0.82200
O499        O  0.70146978  0.32692886  0.97258240    -0.79900
O500        O  0.82257017  0.29442939  0.02665248    -0.81400
O501        O  0.79364153  0.17380700  0.95985156    -0.81200
O502        O  0.70253448  0.17182276  0.96311212    -0.79800
Zn503      Zn  0.70464227  0.24759446  0.03838042     1.55700
O504        O  0.82370814  0.20303043  0.02132429    -0.81200
Cd505      Cd  0.74687004  0.20492541  0.95027836     1.59700
Cd506      Cd  0.74590412  0.29490214  0.95437183     1.59600
O507        O  0.74419060  0.22097089  0.87622254    -0.81200
O508        O  0.74672701  0.24897957  0.99563108    -1.91700
Cd509      Cd  0.79185773  0.24810823  0.03805122     1.59900
O510        O  0.74308207  0.28220245  0.87803045    -0.81200
O511        O  0.77972859  0.24706183  0.11340800    -0.79800
C512        C  0.67587638  0.32220568  0.00326683     0.82700
C513        C  0.67587869  0.17573577  0.99227561     0.82400
O514        O  0.71961200  0.24542865  0.11177613    -0.78800
C515        C  0.82100516  0.17679498  0.98953305     0.83200
O516        O  0.67405414  0.29330398  0.02983599    -0.78900
C517        C  0.74298086  0.25179826  0.85383030     0.83300
C518        C  0.81924183  0.32239184  0.99840635     0.83600
O519        O  0.79207122  0.32631074  0.96854773    -0.81300
O520        O  0.67737418  0.29705910  0.46333195    -0.78800
C521        C  0.75067332  0.24958720  0.35362154     0.82200
O522        O  0.70565934  0.17535507  0.52225518    -0.79900
O523        O  0.82612033  0.20399788  0.46874403    -0.81400
O524        O  0.79777648  0.32598541  0.52797636    -0.81200
O525        O  0.70718482  0.32793460  0.52352519    -0.79800
Zn526      Zn  0.70714260  0.25121950  0.45040825     1.55700
O527        O  0.82657477  0.29609322  0.46743024    -0.81200
Cd528      Cd  0.75152616  0.29541678  0.53848629     1.59700
Cd529      Cd  0.75043692  0.20695458  0.53818274     1.59600
O530        O  0.74902993  0.28215667  0.61364606    -0.81200
O531        O  0.75033916  0.25097208  0.49408703    -1.91700
Cd532      Cd  0.79485452  0.25013679  0.45281713     1.59900
O533        O  0.74779890  0.22109808  0.61326870    -0.81200
O534        O  0.78106544  0.24962192  0.37715005    -0.79800
C535        C  0.67832903  0.17930753  0.49289254     0.82700
C536        C  0.68032739  0.32450261  0.49317769     0.82400
O537        O  0.72086202  0.25012662  0.37691504    -0.78800
C538        C  0.82428983  0.32281578  0.49842780     0.83200
O539        O  0.67535112  0.20684492  0.46367025    -0.78900
C540        C  0.74737249  0.25170119  0.63671881     0.83300
C541        C  0.82329342  0.17782160  0.50004892     0.83600
O542        O  0.79636585  0.17540406  0.52891181    -0.81300
C543        C  0.73937115  0.28499609  0.77138159    -0.13700
C544        C  0.74223701  0.25194496  0.79816206     0.08500
C545        C  0.74562158  0.21880042  0.77122009    -0.13700
C546        C  0.74694094  0.21874016  0.71890404    -0.13700
C547        C  0.74491297  0.25182339  0.69215210     0.08500
C548        C  0.74070675  0.28493399  0.71893658    -0.13700
H549        H  0.73649685  0.31096919  0.79094086     0.12500
H550        H  0.74784326  0.19280764  0.79058025     0.12500
H551        H  0.75004778  0.19273761  0.69948084     0.12500
H552        H  0.73868914  0.31087392  0.69940922     0.12500
C553        C  0.71758224  0.24191716  0.21795895    -0.13700
C554        C  0.74984339  0.24639213  0.19167016     0.08500
C555        C  0.78223418  0.25209411  0.21912866    -0.13700
C556        C  0.78240120  0.25325260  0.27155785    -0.13700
C557        C  0.75018560  0.24873909  0.29790919     0.08500
C558        C  0.71774706  0.24310336  0.27048369    -0.13700
H559        H  0.69215670  0.23748501  0.19795988     0.12500
H560        H  0.80752419  0.25594315  0.20011147     0.12500
H561        H  0.80784077  0.25784587  0.29144864     0.12500
H562        H  0.69247682  0.23940786  0.28959853     0.12500
C563        C  0.62484241  0.35395992  0.45532481    -0.13700
C564        C  0.65168945  0.35292329  0.49343952     0.08500
C565        C  0.65063513  0.37901998  0.53257776    -0.13700
C566        C  0.62326290  0.40543580  0.53368618    -0.13700
C567        C  0.59656196  0.40635809  0.49563671     0.08500
C568        C  0.59756418  0.38058083  0.45633570    -0.13700
H569        H  0.62497900  0.33429223  0.42467280     0.12500
H570        H  0.67075705  0.37881915  0.56269212     0.12500
H571        H  0.62276883  0.42513256  0.56431290     0.12300
H572        H  0.57716544  0.38109196  0.42658695     0.12500
C573        C  0.88248869  0.40298725  0.54207283    -0.13700
C574        C  0.90832583  0.40441737  0.50436573     0.08500
C575        C  0.90655751  0.37888534  0.46471260    -0.13700
C576        C  0.87938451  0.35223659  0.46285401    -0.13700
C577        C  0.85325458  0.35088437  0.50039436     0.08500
C578        C  0.85511188  0.37659340  0.54001291    -0.13700
H579        H  0.88346361  0.42248738  0.57294438     0.12500
H580        H  0.92614635  0.37976251  0.43509905     0.12500
H581        H  0.87863867  0.33293118  0.43176669     0.12500
H582        H  0.83551340  0.37621326  0.56962261     0.12500
C583        C  0.90567592  0.12046957  0.46921589    -0.13700
C584        C  0.90743684  0.09622393  0.50988005     0.08500
C585        C  0.88149543  0.09878618  0.54737081    -0.13700
C586        C  0.85403202  0.12519162  0.54408093    -0.13700
C587        C  0.85218243  0.14961178  0.50334162     0.08500
C588        C  0.87839584  0.14700307  0.46603238    -0.13700
H589        H  0.92534222  0.11861128  0.43975271     0.12500
H590        H  0.88245912  0.08021140  0.57895969     0.12500
H591        H  0.83437160  0.12661196  0.57357605     0.12500
H592        H  0.87765181  0.16525662  0.43410976     0.12500
C593        C  0.62393022  0.09668452  0.53185551    -0.13700
C594        C  0.59473405  0.09736923  0.49753978     0.08500
C595        C  0.59287206  0.12523267  0.46132916    -0.13700
C596        C  0.61991348  0.15206620  0.45959473    -0.13700
C597        C  0.64940698  0.15119619  0.49379025     0.08500
C598        C  0.65103159  0.12316311  0.52988701    -0.13700
H599        H  0.62574751  0.07548045  0.56013039     0.12500
H600        H  0.57050800  0.12611335  0.43445885     0.12500
H601        H  0.61782508  0.17331316  0.43142874     0.12500
H602        H  0.67321327  0.12172734  0.55697829     0.12500
C603        C  0.59169628  0.37338314  0.04464464    -0.13700
C604        C  0.59239137  0.40464192  0.01404891     0.08500
C605        C  0.62125608  0.40912225  0.98125042    -0.13700
C606        C  0.64857928  0.38270195  0.97841410    -0.13700
C607        C  0.64751631  0.35089646  0.00795800     0.08500
C608        C  0.61888699  0.34667644  0.04146292    -0.13700
H609        H  0.56987263  0.36948347  0.07054272     0.12500
H610        H  0.62236424  0.43296485  0.95723267     0.12500
H611        H  0.67028542  0.38699335  0.95246970     0.12500
H612        H  0.61733176  0.32261935  0.06499645     0.12500
C613        C  0.87318980  0.40847627  0.97147092    -0.13700
C614        C  0.90225032  0.40537310  0.00602784     0.08500
C615        C  0.90353396  0.37515567  0.03845458    -0.13700
C616        C  0.87673810  0.34816799  0.03567624    -0.13700
C617        C  0.84770348  0.35107080  0.00089946     0.08500
C618        C  0.84611127  0.38170433  0.96905973    -0.13700
H619        H  0.87167568  0.43151282  0.94599147     0.12500
H620        H  0.92550804  0.37232443  0.06567845     0.12500
H621        H  0.87876759  0.32504596  0.06093945     0.12500
H622        H  0.82410301  0.38487057  0.94198425     0.12500
C623        C  0.87657419  0.09360880  0.95130159    -0.13700
C624        C  0.90539968  0.09520397  0.98630861     0.08500
C625        C  0.90700644  0.12415778  0.02117614    -0.13700
C626        C  0.87980896  0.15081150  0.02178161    -0.13700
C627        C  0.85042130  0.14906028  0.98743815     0.08500
C628        C  0.84932724  0.12035709  0.95176432    -0.13700
H629        H  0.87502232  0.07142375  0.92406311     0.12500
H630        H  0.92902769  0.12568848  0.04855670     0.12500
H631        H  0.88159529  0.17253193  0.04966589     0.12500
H632        H  0.82723866  0.11832173  0.92457678     0.12500
C633        C  0.62352719  0.08787996  0.96528614    -0.13700
C634        C  0.59227004  0.09347436  0.99336724     0.08500
C635        C  0.58848640  0.12635666  0.02056839    -0.13700
C636        C  0.61547358  0.15314215  0.01985033    -0.13700
C637        C  0.64697254  0.14753401  0.99211647     0.08500
C638        C  0.65063408  0.11462372  0.96467334    -0.13700
H639        H  0.62693474  0.06272968  0.94394840     0.12500
H640        H  0.56464505  0.13117905  0.04261086     0.12500
H641        H  0.61168628  0.17821113  0.04120697     0.12500
H642        H  0.67454925  0.10940484  0.94296603     0.12500
N643        N  0.55280221  0.49861266  0.00378176    -0.36900
N644        N  0.99830981  0.55504338  0.99311365    -0.57500
N645        N  0.94258078  0.49928773  0.99708144    -0.36900
N646        N  0.99722125  0.94268839  0.01369004    -0.57500
C647        C  0.57277048  0.52924727  0.01202650     0.26700
C648        C  0.57215522  0.96987157  0.02178852     0.26700
C649        C  0.92291698  0.53025361  0.00350236     0.26700
C650        C  0.92229063  0.97084354  0.01252095     0.26700
C651        C  0.52781085  0.57445889  0.98058403     0.35300
C652        C  0.96930994  0.57488691  0.97773934     0.35300
C653        C  0.52656497  0.92126526  0.00602837     0.35300
C654        C  0.96796135  0.92172956  0.00237818     0.35300
C655        C  0.60503193  0.51989315  0.03624599    -0.22200
C656        C  0.60467121  0.98236507  0.04229796    -0.22200
C657        C  0.88979379  0.52142349  0.02367434    -0.22200
C658        C  0.88938992  0.98386360  0.02933246    -0.22200
C659        C  0.51750759  0.60664554  0.95664979    -0.23300
C660        C  0.98033832  0.60699713  0.95508890    -0.23300
C661        C  0.51588113  0.88658222  0.98999920    -0.23300
C662        C  0.97876203  0.88687547  0.98770474    -0.23300
C663        C  0.56359461  0.56483012  0.99474475    -0.18600
C664        C  0.56275175  0.93251166  0.01496942    -0.18600
C665        C  0.93166995  0.93336185  0.00735193    -0.18600
C666        C  0.93322057  0.56577329  0.98820923    -0.18600
H667        H  0.62687624  0.53808155  0.04754039     0.14300
H668        H  0.62621153  0.96602215  0.05892091     0.14300
H669        H  0.86794297  0.54001310  0.03260197     0.14300
H670        H  0.86718726  0.96790667  0.04345914     0.14300
H671        H  0.53490890  0.62792239  0.94256545     0.12600
H672        H  0.96336424  0.62857611  0.93966913     0.12600
H673        H  0.53295749  0.86354711  0.98034664     0.12600
H674        H  0.96174505  0.86410881  0.97601073     0.12600
H675        H  0.52960331  0.49671427  0.98106325     0.25800
H676        H  0.96653039  0.49711760  0.97737312     0.25800
N677        N  0.55708719  0.50137846  0.50155878    -0.36900
N678        N  0.00119121  0.55748756  0.50545277    -0.57500
N679        N  0.94626719  0.50031319  0.51258663    -0.36900
N680        N  0.00196127  0.94419723  0.50049369    -0.57500
C681        C  0.57683219  0.53154028  0.49107358     0.26700
C682        C  0.57741937  0.97165755  0.49018806     0.26700
C683        C  0.92515821  0.53030942  0.50514150     0.26700
C684        C  0.92558984  0.97045947  0.50212193     0.26700
C685        C  0.53061433  0.57929391  0.51042994     0.35300
C686        C  0.97233914  0.57862610  0.51659785     0.35300
C687        C  0.53174570  0.92279639  0.50518964     0.35300
C688        C  0.97334654  0.92224312  0.50914218     0.35300
C689        C  0.61022654  0.52075777  0.47320875    -0.22200
C690        C  0.61064648  0.98302581  0.47285909    -0.22200
C691        C  0.89055954  0.51932838  0.49076360    -0.22200
C692        C  0.89084088  0.98164153  0.48881671    -0.22200
C693        C  0.52037273  0.61440000  0.52485387    -0.23300
C694        C  0.98345393  0.61398764  0.52865952    -0.23300
C695        C  0.52196384  0.88708923  0.51645179    -0.23300
C696        C  0.98498013  0.88673332  0.51888825    -0.23300
C697        C  0.56638874  0.56850661  0.49964007    -0.18600
C698        C  0.56756342  0.93453426  0.49718317    -0.18600
C699        C  0.93672685  0.93331061  0.50579965    -0.18600
C700        C  0.93588551  0.56735370  0.51196058    -0.18600
H701        H  0.63219201  0.53822480  0.46183558     0.14300
H702        H  0.63295131  0.96591618  0.46117406     0.14300
H703        H  0.86747681  0.53664629  0.48209614     0.14300
H704        H  0.86801824  0.96446343  0.47836370     0.14300
H705        H  0.53762544  0.63796505  0.53162267     0.12600
H706        H  0.96666653  0.63718214  0.53866615     0.12600
H707        H  0.53959450  0.86366764  0.52224160     0.12600
H708        H  0.96856122  0.86300908  0.52697273     0.12600
H709        H  0.53289617  0.50099372  0.52052132     0.25800
H710        H  0.97216904  0.50013441  0.52838027     0.25800
O711        O  0.67354481  0.70334167  0.02176981    -0.78800
C712        C  0.74970671  0.74607830  0.13599604     0.82200
O713        O  0.70146987  0.82692889  0.97258225    -0.79900
O714        O  0.82257006  0.79442954  0.02665278    -0.81400
O715        O  0.79364160  0.67380703  0.95985121    -0.81200
O716        O  0.70253451  0.67182276  0.96311207    -0.79800
Zn717      Zn  0.70464231  0.74759460  0.03838016     1.55700
O718        O  0.82370827  0.70303041  0.02132395    -0.81200
Cd719      Cd  0.74687007  0.70492545  0.95027820     1.59700
Cd720      Cd  0.74590420  0.79490215  0.95437163     1.59600
O721        O  0.74419037  0.72097087  0.87622233    -0.81200
O722        O  0.74672712  0.74897963  0.99563090    -1.91700
Cd723      Cd  0.79185779  0.74810819  0.03805117     1.59900
O724        O  0.74308209  0.78220243  0.87803032    -0.81200
O725        O  0.77972852  0.74706170  0.11340794    -0.79800
C726        C  0.67587643  0.82220570  0.00326663     0.82700
C727        C  0.67587861  0.67573592  0.99227535     0.82400
O728        O  0.71961192  0.74542881  0.11177599    -0.78800
C729        C  0.82100527  0.67679500  0.98953266     0.83200
O730        O  0.67405417  0.79330402  0.02983579    -0.78900
C731        C  0.74298065  0.75179827  0.85383014     0.83300
C732        C  0.81924174  0.82239200  0.99840667     0.83600
O733        O  0.79207125  0.82631083  0.96854780    -0.81300
O734        O  0.67737418  0.79705905  0.46333200    -0.78800
C735        C  0.75067330  0.74958747  0.35362141     0.82200
O736        O  0.70565968  0.67535490  0.52225535    -0.79900
O737        O  0.82612036  0.70399791  0.46874363    -0.81400
O738        O  0.79777691  0.82598515  0.52797670    -0.81200
O739        O  0.70718514  0.82793459  0.52352492    -0.79800
Zn740      Zn  0.70714266  0.75121949  0.45040829     1.55700
O741        O  0.82657501  0.79609323  0.46743015    -0.81200
Cd742      Cd  0.75152641  0.79541677  0.53848629     1.59700
Cd743      Cd  0.75043715  0.70695469  0.53818276     1.59600
O744        O  0.74902986  0.78215674  0.61364601    -0.81200
O745        O  0.75033931  0.75097217  0.49408695    -1.91700
Cd746      Cd  0.79485459  0.75013692  0.45281687     1.59900
O747        O  0.74779886  0.72109818  0.61326872    -0.81200
O748        O  0.78106543  0.74962215  0.37714986    -0.79800
C749        C  0.67832932  0.67930732  0.49289277     0.82700
C750        C  0.68032758  0.82450262  0.49317761     0.82400
O751        O  0.72086201  0.75012680  0.37691498    -0.78800
C752        C  0.82429022  0.82281558  0.49842807     0.83200
O753        O  0.67535134  0.70684476  0.46367056    -0.78900
C754        C  0.74737230  0.75170130  0.63671879     0.83300
C755        C  0.82329365  0.67782178  0.50004882     0.83600
O756        O  0.79636623  0.67540434  0.52891199    -0.81300
C757        C  0.73937091  0.78499628  0.77138155    -0.13700
C758        C  0.74223657  0.75194508  0.79816194     0.08500
C759        C  0.74562080  0.71880056  0.77121993    -0.13700
C760        C  0.74694023  0.71874034  0.71890393    -0.13700
C761        C  0.74491251  0.75182358  0.69215203     0.08500
C762        C  0.74070647  0.78493421  0.71893652    -0.13700
H763        H  0.73649693  0.81096939  0.79094090     0.12500
H764        H  0.74784223  0.69280774  0.79058003     0.12500
H765        H  0.75004697  0.69273778  0.69948073     0.12500
H766        H  0.73868911  0.81087417  0.69940920     0.12500
C767        C  0.71758209  0.74191787  0.21795891    -0.13700
C768        C  0.74984330  0.74639219  0.19167008     0.08500
C769        C  0.78223417  0.75209374  0.21912852    -0.13700
C770        C  0.78240123  0.75325235  0.27155770    -0.13700
C771        C  0.75018556  0.74873941  0.29790908     0.08500
C772        C  0.71774694  0.74310418  0.27048364    -0.13700
H773        H  0.69215646  0.73748620  0.19795989     0.12500
H774        H  0.80752422  0.75594239  0.20011131     0.12500
H775        H  0.80784091  0.75784521  0.29144839     0.12500
H776        H  0.69247665  0.73940912  0.28959851     0.12500
C777        C  0.62484251  0.85395997  0.45532510    -0.13700
C778        C  0.65168975  0.85292340  0.49343956     0.08500
C779        C  0.65063568  0.87902022  0.53257769    -0.13700
C780        C  0.62326349  0.90543610  0.53368628    -0.13700
C781        C  0.59656233  0.90635832  0.49563709     0.08500
C782        C  0.59756432  0.88058094  0.45633617    -0.13700
H783        H  0.62497890  0.83429216  0.42467323     0.12500
H784        H  0.67075776  0.87881940  0.56269186     0.12500
H785        H  0.62276959  0.92513293  0.56431293     0.12300
H786        H  0.57716539  0.88109199  0.42658766     0.12500
C787        C  0.88248935  0.90298662  0.54207400    -0.13700
C788        C  0.90832629  0.90441706  0.50436670     0.08500
C789        C  0.90655781  0.87888535  0.46471320    -0.13700
C790        C  0.87938479  0.85223661  0.46285438    -0.13700
C791        C  0.85325507  0.85088405  0.50039497     0.08500
C792        C  0.85511259  0.87659272  0.54001397    -0.13700
H793        H  0.88346436  0.92248658  0.57294575     0.12500
H794        H  0.92614645  0.87976285  0.43509942     0.12500
H795        H  0.87863870  0.83293154  0.43176667     0.12500
H796        H  0.83551424  0.87621233  0.56962383     0.12500
C797        C  0.90567583  0.62046937  0.46921538    -0.13700
C798        C  0.90743711  0.59622415  0.50988000     0.08500
C799        C  0.88149617  0.59878689  0.54737130    -0.13700
C800        C  0.85403276  0.62519234  0.54408143    -0.13700
C801        C  0.85218274  0.64961203  0.50334160     0.08500
C802        C  0.87839575  0.64700287  0.46603189    -0.13700
H803        H  0.92534179  0.61861072  0.43975181     0.12500
H804        H  0.88246017  0.58021247  0.57896056     0.12500
H805        H  0.83437266  0.62661304  0.57357694     0.12500
H806        H  0.87765139  0.66525605  0.43410887     0.12500
C807        C  0.62393039  0.59668437  0.53185594    -0.13700
C808        C  0.59473428  0.59736906  0.49754013     0.08500
C809        C  0.59287230  0.62523249  0.46132949    -0.13700
C810        C  0.61991377  0.65206597  0.45959498    -0.13700
C811        C  0.64940730  0.65119593  0.49379045     0.08500
C812        C  0.65103185  0.62316288  0.52988728    -0.13700
H813        H  0.62574757  0.57548037  0.56013093     0.12500
H814        H  0.57050822  0.62611318  0.43445922     0.12500
H815        H  0.61782535  0.67331293  0.43142898     0.12500
H816        H  0.67321354  0.62172711  0.55697854     0.12500
C817        C  0.59169596  0.87338268  0.04464391    -0.13700
C818        C  0.59239110  0.90464162  0.01404849     0.08500
C819        C  0.62125595  0.90912214  0.98125025    -0.13700
C820        C  0.64857929  0.88270197  0.97841400    -0.13700
C821        C  0.64751628  0.85089638  0.00795768     0.08500
C822        C  0.61888675  0.84667608  0.04146218    -0.13700
H823        H  0.56987225  0.86948283  0.07054182     0.12500
H824        H  0.62236419  0.93296485  0.95723271     0.12500
H825        H  0.67028558  0.88699356  0.95246991     0.12500
H826        H  0.61733148  0.82261888  0.06499549     0.12500
C827        C  0.87318966  0.90847649  0.97147155    -0.13700
C828        C  0.90224992  0.90537350  0.00602889     0.08500
C829        C  0.90353327  0.87515635  0.03845615    -0.13700
C830        C  0.87673746  0.84816861  0.03567765    -0.13700
C831        C  0.84770326  0.85107109  0.00090015     0.08500
C832        C  0.84611124  0.88170447  0.96906014    -0.13700
H833        H  0.87167571  0.93151292  0.94599188     0.12500
H834        H  0.92550711  0.87232532  0.06568046     0.12500
H835        H  0.87876668  0.82504678  0.06094125     0.12500
H836        H  0.82410322  0.88487048  0.94198423     0.12500
C837        C  0.87657367  0.59360810  0.95130221    -0.13700
C838        C  0.90539952  0.59520368  0.98630862     0.08500
C839        C  0.90700671  0.62415802  0.02117531    -0.13700
C840        C  0.87980937  0.65081187  0.02178055    -0.13700
C841        C  0.85042136  0.64906024  0.98743775     0.08500
C842        C  0.84932682  0.62035648  0.95176477    -0.13700
H843        H  0.87502144  0.57142266  0.92406434     0.12500
H844        H  0.92902824  0.62568908  0.04855540     0.12500
H845        H  0.88159609  0.67253273  0.04966416     0.12500
H846        H  0.82723791  0.61832074  0.92457781     0.12500
C847        C  0.62352715  0.58787997  0.96528650    -0.13700
C848        C  0.59226982  0.59347463  0.99336714     0.08500
C849        C  0.58848595  0.62635721  0.02056759    -0.13700
C850        C  0.61547310  0.65314273  0.01984933    -0.13700
C851        C  0.64697233  0.64753427  0.99211612     0.08500
C852        C  0.65063408  0.61462370  0.96467366    -0.13700
H853        H  0.62693483  0.56272948  0.94394924     0.12500
H854        H  0.56464445  0.63117977  0.04260970     0.12500
H855        H  0.61168559  0.67821195  0.04120541     0.12500
H856        H  0.67454947  0.60940459  0.94296691     0.12500
loop_ 
_geom_bond_atom_site_label_1 
_geom_bond_atom_site_label_2 
_geom_bond_distance 
_geom_bond_site_symmetry_2 
_ccdc_geom_bond_type 
N1           H33   1.042   1_554  S
N1            C5   1.353   1_565  A
N1          C220   1.351       .  A
N2           C10   1.350       .  A
N2          C437   1.350       .  A
N3           H34   1.042       .  S
N3            C7   1.352   1_566  A
N3          C222   1.351   1_556  A
N4           C12   1.353       .  A
N4          C439   1.353       .  A
C5           C13   1.387       .  A
C5           C21   1.416   1_554  A
C6          N215   1.351       .  A
C6           C22   1.414       .  A
C6           C14   1.387       .  A
C7           C15   1.387       .  A
C7           C24   1.414   1_554  A
C8          N217   1.351   1_554  A
C8           C23   1.414       .  A
C8           C16   1.387       .  A
C9          N430   1.350   1_455  A
C9           C21   1.413       .  A
C9           C17   1.387       .  A
C10          C24   1.410       .  A
C10          C18   1.385       .  A
C11         N432   1.353   1_455  A
C11          C19   1.386   1_554  A
C11          C22   1.415       .  A
C12          C20   1.386   1_554  A
C12          C23   1.415       .  A
C13         C228   1.377   1_545  A
C13          H25   1.082       .  S
C14         C227   1.377       .  A
C14          H26   1.082       .  S
C15         C230   1.377   1_545  A
C15          H27   1.082       .  S
C16         C229   1.377       .  A
C16          H28   1.082       .  S
C17         C446   1.375   1_455  A
C17          H29   1.082       .  S
C18         C445   1.375       .  A
C18          H30   1.082       .  S
C19         C448   1.373   1_455  A
C19          H31   1.082       .  S
C20         C447   1.373       .  A
C20          H32   1.082       .  S
C21         C206   1.490       .  S
C22         C176   1.493       .  S
C23         C186   1.492       .  S
C24         C196   1.484       .  S
N35          H67   1.037       .  S
N35          C39   1.354       .  A
N35         C254   1.353   1_545  A
N36          C44   1.351       .  A
N36         C471   1.352       .  A
N37          H68   1.038       .  S
N37          C41   1.354       .  A
N37         C256   1.354   1_545  A
N38          C46   1.352       .  A
N38         C473   1.352       .  A
C39          C47   1.388       .  A
C39          C55   1.418       .  A
C40         N249   1.353       .  A
C40          C56   1.415       .  A
C40          C48   1.387       .  A
C41          C49   1.387       .  A
C41          C58   1.416       .  A
C42         N251   1.354       .  A
C42          C57   1.416       .  A
C42          C50   1.387       .  A
C43         N464   1.352       .  A
C43          C55   1.414       .  A
C43          C51   1.386       .  A
C44          C58   1.413       .  A
C44          C52   1.386       .  A
C45         N466   1.352       .  A
C45          C53   1.386       .  A
C45          C56   1.414       .  A
C46          C54   1.386       .  A
C46          C57   1.413       .  A
C47         C262   1.374   1_545  A
C47          H59   1.082       .  S
C48         C261   1.374       .  A
C48          H60   1.082       .  S
C49         C264   1.373   1_545  A
C49          H61   1.082       .  S
C50         C263   1.373       .  A
C50          H62   1.082       .  S
C51         C480   1.371   1_455  A
C51          H63   1.082       .  S
C52         C479   1.371       .  A
C52          H64   1.082       .  S
C53         C482   1.371   1_455  A
C53          H65   1.082       .  S
C54         C481   1.371       .  A
C54          H66   1.082       .  S
C55         C166   1.488       .  S
C56         C139   1.484       .  S
C57         C146   1.488       .  S
C58         C156   1.486       .  S
O69          C85   1.276   1_554  A
O69         Zn75   2.023       .  S
C70         C126   1.484       .  S
C70          O86   1.275       .  A
C70          O83   1.275       .  A
O71          C84   1.276   1_556  A
O71         Cd78   2.077       .  S
O72          C90   1.274   1_554  A
O72         Cd81   2.063       .  S
O73          C87   1.276       .  A
O73         Cd77   2.078       .  S
O74          C85   1.275       .  A
O74         Cd77   2.072       .  S
Zn75         O86   2.024       .  S
Zn75         O88   2.022       .  S
Zn75         O80   1.949   1_554  S
O76          C87   1.275   1_554  A
O76         Cd81   2.070       .  S
Cd77         O79   2.062       .  S
Cd77         O80   2.002       .  S
Cd78         O82   2.084       .  S
Cd78         O91   2.083       .  S
Cd78         O80   2.007       .  S
O79          C89   1.275       .  A
O80         Cd81   1.996   1_556  S
Cd81         O83   2.068       .  S
O82          C89   1.277       .  A
C84         C179   1.485       .  S
C84          O88   1.275       .  A
C85         C209   1.484       .  S
C87         C199   1.484       .  S
C89         C116   1.483       .  S
C90         C189   1.484   1_556  S
C90          O91   1.277       .  A
O92         C108   1.276       .  A
O92         Zn98   2.029       .  S
C93         C129   1.485       .  S
C93         O109   1.277       .  A
C93         O106   1.276       .  A
O94         C107   1.274       .  A
O94        Cd101   2.054       .  S
O95         C113   1.277       .  A
O95        Cd104   2.078       .  S
O96         C110   1.275       .  A
O96        Cd100   2.068       .  S
O97         C108   1.273       .  A
O97        Cd100   2.054       .  S
Zn98        O109   2.034       .  S
Zn98        O111   2.037       .  S
Zn98        O103   1.957       .  S
O99         C110   1.276       .  A
O99        Cd104   2.075       .  S
Cd100       O102   2.067       .  S
Cd100       O103   1.998       .  S
Cd101       O105   2.067       .  S
Cd101       O114   2.067       .  S
Cd101       O103   1.993       .  S
O102        C112   1.274       .  A
O103       Cd104   1.999       .  S
Cd104       O106   2.070       .  S
O105        C112   1.274       .  A
C107        C169   1.483       .  S
C107        O111   1.277       .  A
C108        C136   1.479       .  S
C110        C149   1.482       .  S
C112        C119   1.482       .  S
C113        C159   1.482       .  S
C113        O114   1.275       .  A
C115        C116   1.406       .  A
C115        C120   1.400       .  A
C115        H121   1.083       .  S
C116        C117   1.407       .  A
C117        C118   1.396       .  A
C117        H122   1.083       .  S
C118        C119   1.405       .  A
C118        H123   1.083       .  S
C119        C120   1.407       .  A
C120        H124   1.083       .  S
C125        C126   1.407       .  A
C125        C130   1.400       .  A
C125        H131   1.083       .  S
C126        C127   1.406       .  A
C127        C128   1.397       .  A
C127        H132   1.083       .  S
C128        C129   1.406       .  A
C128        H133   1.083       .  S
C129        C130   1.406       .  A
C130        H134   1.083       .  S
C135        C136   1.406       .  A
C135        C140   1.398       .  A
C135        H141   1.083       .  S
C136        C137   1.407       .  A
C137        C138   1.396       .  A
C137        H142   1.083       .  S
C138        C139   1.401       .  A
C138        H143   1.083       .  S
C139        C140   1.403       .  A
C140        H144   1.083       .  S
C145        C146   1.403       .  A
C145        C150   1.397       .  A
C145        H151   1.083       .  S
C146        C147   1.403       .  A
C147        C148   1.398       .  A
C147        H152   1.083       .  S
C148        C149   1.407       .  A
C148        H153   1.083       .  S
C149        C150   1.407       .  A
C150        H154   1.083       .  S
C155        C156   1.403       .  A
C155        C160   1.397       .  A
C155        H161   1.083       .  S
C156        C157   1.402       .  A
C157        C158   1.399       .  A
C157        H162   1.083       .  S
C158        C159   1.408       .  A
C158        H163   1.083       .  S
C159        C160   1.406       .  A
C160        H164   1.083       .  S
C165        C166   1.401       .  A
C165        C170   1.394       .  A
C165        H171   1.083       .  S
C166        C167   1.405       .  A
C167        C168   1.401       .  A
C167        H172   1.083       .  S
C168        C169   1.407       .  A
C168        H173   1.083       .  S
C169        C170   1.407       .  A
C170        H174   1.083       .  S
C175        C176   1.405       .  A
C175        C180   1.401       .  A
C175        H181   1.083       .  S
C176        C177   1.404   1_554  A
C177        C178   1.397       .  A
C177        H182   1.083       .  S
C178        C179   1.406   1_556  A
C178        H183   1.083       .  S
C179        C180   1.409       .  A
C180        H184   1.083       .  S
C185        C186   1.405   1_556  A
C185        C190   1.399       .  A
C185        H191   1.083       .  S
C186        C187   1.403       .  A
C187        C188   1.397       .  A
C187        H192   1.083       .  S
C188        C189   1.408       .  A
C188        H193   1.083       .  S
C189        C190   1.406   1_554  A
C190        H194   1.083       .  S
C195        C196   1.403       .  A
C195        C200   1.400       .  A
C195        H201   1.083       .  S
C196        C197   1.401   1_556  A
C197        C198   1.396       .  A
C197        H202   1.083       .  S
C198        C199   1.407   1_554  A
C198        H203   1.083       .  S
C199        C200   1.408       .  A
C200        H204   1.083       .  S
C205        C206   1.404       .  A
C205        C210   1.399       .  A
C205        H211   1.083       .  S
C206        C207   1.404   1_556  A
C207        C208   1.397       .  A
C207        H212   1.083       .  S
C208        C209   1.407   1_554  A
C208        H213   1.083       .  S
C209        C210   1.407       .  A
C210        H214   1.083       .  S
N215        H247   1.042   1_554  S
N215        C219   1.353       .  A
N216        C651   1.350       .  A
N216        C224   1.350       .  A
N217        H248   1.042       .  S
N217        C221   1.352   1_556  A
N218        C653   1.353       .  A
N218        C226   1.353       .  A
C219        C227   1.387       .  A
C219        C235   1.416   1_554  A
C220        C236   1.414       .  A
C220        C228   1.387       .  A
C221        C229   1.387       .  A
C221        C238   1.414   1_554  A
C222        C237   1.414       .  A
C222        C230   1.387       .  A
C223        N644   1.350   1_455  A
C223        C235   1.413       .  A
C223        C231   1.387       .  A
C224        C238   1.410       .  A
C224        C232   1.385       .  A
C225        N646   1.353   1_455  A
C225        C233   1.386   1_554  A
C225        C236   1.415       .  A
C226        C234   1.386   1_554  A
C226        C237   1.415       .  A
C227        H239   1.082       .  S
C228        H240   1.082       .  S
C229        H241   1.082       .  S
C230        H242   1.082       .  S
C231        C660   1.375   1_455  A
C231        H243   1.082       .  S
C232        C659   1.375       .  A
C232        H244   1.082       .  S
C233        C662   1.373   1_455  A
C233        H245   1.082       .  S
C234        C661   1.373       .  A
C234        H246   1.082       .  S
C235        C420   1.490       .  S
C236        C390   1.493       .  S
C237        C400   1.492       .  S
C238        C410   1.484       .  S
N249        H281   1.037       .  S
N249        C253   1.354       .  A
N250        C685   1.352       .  A
N250        C258   1.351       .  A
N251        H282   1.038       .  S
N251        C255   1.354       .  A
N252        C687   1.352       .  A
N252        C260   1.352       .  A
C253        C261   1.388       .  A
C253        C269   1.418       .  A
C254        C270   1.415       .  A
C254        C262   1.387       .  A
C255        C263   1.387       .  A
C255        C272   1.416       .  A
C256        C271   1.416       .  A
C256        C264   1.387       .  A
C257        N678   1.352       .  A
C257        C269   1.414       .  A
C257        C265   1.386       .  A
C258        C272   1.413       .  A
C258        C266   1.386       .  A
C259        N680   1.352       .  A
C259        C267   1.386       .  A
C259        C270   1.414       .  A
C260        C268   1.386       .  A
C260        C271   1.413       .  A
C261        H273   1.082       .  S
C262        H274   1.082       .  S
C263        H275   1.082       .  S
C264        H276   1.082       .  S
C265        C694   1.371   1_455  A
C265        H277   1.082       .  S
C266        C693   1.371       .  A
C266        H278   1.082       .  S
C267        C696   1.371   1_455  A
C267        H279   1.082       .  S
C268        C695   1.371       .  A
C268        H280   1.082       .  S
C269        C380   1.488       .  S
C270        C353   1.484       .  S
C271        C360   1.488       .  S
C272        C370   1.486       .  S
O283        C299   1.276   1_554  A
O283       Zn289   2.023       .  S
C284        C340   1.484       .  S
C284        O300   1.275       .  A
C284        O297   1.275       .  A
O285        C298   1.276   1_556  A
O285       Cd292   2.077       .  S
O286        C304   1.274   1_554  A
O286       Cd295   2.063       .  S
O287        C301   1.276       .  A
O287       Cd291   2.078       .  S
O288        C299   1.275       .  A
O288       Cd291   2.072       .  S
Zn289       O300   2.024       .  S
Zn289       O302   2.022       .  S
Zn289       O294   1.949   1_554  S
O290        C301   1.275   1_554  A
O290       Cd295   2.070       .  S
Cd291       O293   2.062       .  S
Cd291       O294   2.002       .  S
Cd292       O296   2.084       .  S
Cd292       O305   2.083       .  S
Cd292       O294   2.007       .  S
O293        C303   1.275       .  A
O294       Cd295   1.996   1_556  S
Cd295       O297   2.068       .  S
O296        C303   1.277       .  A
C298        C393   1.485       .  S
C298        O302   1.275       .  A
C299        C423   1.484       .  S
C301        C413   1.484       .  S
C303        C330   1.483       .  S
C304        C403   1.484   1_556  S
C304        O305   1.277       .  A
O306        C322   1.276       .  A
O306       Zn312   2.029       .  S
C307        C343   1.485       .  S
C307        O323   1.277       .  A
C307        O320   1.276       .  A
O308        C321   1.274       .  A
O308       Cd315   2.054       .  S
O309        C327   1.277       .  A
O309       Cd318   2.078       .  S
O310        C324   1.275       .  A
O310       Cd314   2.068       .  S
O311        C322   1.273       .  A
O311       Cd314   2.054       .  S
Zn312       O323   2.034       .  S
Zn312       O325   2.037       .  S
Zn312       O317   1.957       .  S
O313        C324   1.276       .  A
O313       Cd318   2.075       .  S
Cd314       O316   2.067       .  S
Cd314       O317   1.998       .  S
Cd315       O319   2.067       .  S
Cd315       O328   2.067       .  S
Cd315       O317   1.993       .  S
O316        C326   1.274       .  A
O317       Cd318   1.999       .  S
Cd318       O320   2.070       .  S
O319        C326   1.274       .  A
C321        C383   1.483       .  S
C321        O325   1.277       .  A
C322        C350   1.479       .  S
C324        C363   1.482       .  S
C326        C333   1.482       .  S
C327        C373   1.482       .  S
C327        O328   1.275       .  A
C329        C330   1.406       .  A
C329        C334   1.400       .  A
C329        H335   1.083       .  S
C330        C331   1.407       .  A
C331        C332   1.396       .  A
C331        H336   1.083       .  S
C332        C333   1.405       .  A
C332        H337   1.083       .  S
C333        C334   1.407       .  A
C334        H338   1.083       .  S
C339        C340   1.407       .  A
C339        C344   1.400       .  A
C339        H345   1.083       .  S
C340        C341   1.406       .  A
C341        C342   1.397       .  A
C341        H346   1.083       .  S
C342        C343   1.406       .  A
C342        H347   1.083       .  S
C343        C344   1.406       .  A
C344        H348   1.083       .  S
C349        C350   1.406       .  A
C349        C354   1.398       .  A
C349        H355   1.083       .  S
C350        C351   1.407       .  A
C351        C352   1.396       .  A
C351        H356   1.083       .  S
C352        C353   1.401       .  A
C352        H357   1.083       .  S
C353        C354   1.403       .  A
C354        H358   1.083       .  S
C359        C360   1.403       .  A
C359        C364   1.397       .  A
C359        H365   1.083       .  S
C360        C361   1.403       .  A
C361        C362   1.398       .  A
C361        H366   1.083       .  S
C362        C363   1.407       .  A
C362        H367   1.083       .  S
C363        C364   1.407       .  A
C364        H368   1.083       .  S
C369        C370   1.403       .  A
C369        C374   1.397       .  A
C369        H375   1.083       .  S
C370        C371   1.402       .  A
C371        C372   1.399       .  A
C371        H376   1.083       .  S
C372        C373   1.408       .  A
C372        H377   1.083       .  S
C373        C374   1.406       .  A
C374        H378   1.083       .  S
C379        C380   1.401       .  A
C379        C384   1.394       .  A
C379        H385   1.083       .  S
C380        C381   1.405       .  A
C381        C382   1.401       .  A
C381        H386   1.083       .  S
C382        C383   1.407       .  A
C382        H387   1.083       .  S
C383        C384   1.407       .  A
C384        H388   1.083       .  S
C389        C390   1.405       .  A
C389        C394   1.401       .  A
C389        H395   1.083       .  S
C390        C391   1.404   1_554  A
C391        C392   1.397       .  A
C391        H396   1.083       .  S
C392        C393   1.406   1_556  A
C392        H397   1.083       .  S
C393        C394   1.409       .  A
C394        H398   1.083       .  S
C399        C400   1.405   1_556  A
C399        C404   1.399       .  A
C399        H405   1.083       .  S
C400        C401   1.403       .  A
C401        C402   1.397       .  A
C401        H406   1.083       .  S
C402        C403   1.408       .  A
C402        H407   1.083       .  S
C403        C404   1.406   1_554  A
C404        H408   1.083       .  S
C409        C410   1.403       .  A
C409        C414   1.400       .  A
C409        H415   1.083       .  S
C410        C411   1.401   1_556  A
C411        C412   1.396       .  A
C411        H416   1.083       .  S
C412        C413   1.407   1_554  A
C412        H417   1.083       .  S
C413        C414   1.408       .  A
C414        H418   1.083       .  S
C419        C420   1.404       .  A
C419        C424   1.399       .  A
C419        H425   1.083       .  S
C420        C421   1.404   1_556  A
C421        C422   1.397       .  A
C421        H426   1.083       .  S
C422        C423   1.407   1_554  A
C422        H427   1.083       .  S
C423        C424   1.407       .  A
C424        H428   1.083       .  S
N429        H461   1.042   1_554  S
N429        C648   1.351       .  A
N429        C433   1.353   1_565  A
N430        C438   1.350       .  A
N431        H462   1.042       .  S
N431        C650   1.351   1_556  A
N431        C435   1.352   1_566  A
N432        C440   1.353       .  A
C433        C441   1.387       .  A
C433        C449   1.416   1_554  A
C434        N643   1.351       .  A
C434        C450   1.414       .  A
C434        C442   1.387       .  A
C435        C443   1.387       .  A
C435        C452   1.414   1_554  A
C436        N645   1.351   1_554  A
C436        C451   1.414       .  A
C436        C444   1.387       .  A
C437        C449   1.413       .  A
C437        C445   1.387       .  A
C438        C452   1.410       .  A
C438        C446   1.385       .  A
C439        C447   1.386   1_554  A
C439        C450   1.415       .  A
C440        C448   1.386   1_554  A
C440        C451   1.415       .  A
C441        C656   1.377   1_545  A
C441        H453   1.082       .  S
C442        C655   1.377       .  A
C442        H454   1.082       .  S
C443        C658   1.377   1_545  A
C443        H455   1.082       .  S
C444        C657   1.377       .  A
C444        H456   1.082       .  S
C445        H457   1.082       .  S
C446        H458   1.082       .  S
C447        H459   1.082       .  S
C448        H460   1.082       .  S
C449        C634   1.490       .  S
C450        C604   1.493       .  S
C451        C614   1.492       .  S
C452        C624   1.484       .  S
N463        H495   1.037       .  S
N463        C682   1.353   1_545  A
N463        C467   1.354       .  A
N464        C472   1.351   1_455  A
N465        H496   1.038       .  S
N465        C684   1.354   1_545  A
N465        C469   1.354       .  A
N466        C474   1.352   1_455  A
C467        C475   1.388       .  A
C467        C483   1.418       .  A
C468        N677   1.353       .  A
C468        C484   1.415       .  A
C468        C476   1.387       .  A
C469        C477   1.387       .  A
C469        C486   1.416       .  A
C470        N679   1.354       .  A
C470        C485   1.416       .  A
C470        C478   1.387       .  A
C471        C483   1.414       .  A
C471        C479   1.386       .  A
C472        C486   1.413       .  A
C472        C480   1.386       .  A
C473        C481   1.386       .  A
C473        C484   1.414       .  A
C474        C482   1.386       .  A
C474        C485   1.413       .  A
C475        C690   1.374   1_545  A
C475        H487   1.082       .  S
C476        C689   1.374       .  A
C476        H488   1.082       .  S
C477        C692   1.373   1_545  A
C477        H489   1.082       .  S
C478        C691   1.373       .  A
C478        H490   1.082       .  S
C479        H491   1.082       .  S
C480        H492   1.082       .  S
C481        H493   1.082       .  S
C482        H494   1.082       .  S
C483        C594   1.488       .  S
C484        C567   1.484       .  S
C485        C574   1.488       .  S
C486        C584   1.486       .  S
O497        C513   1.276   1_554  A
O497       Zn503   2.023       .  S
C498        C554   1.484       .  S
C498        O514   1.275       .  A
C498        O511   1.275       .  A
O499        C512   1.276   1_556  A
O499       Cd506   2.077       .  S
O500        C518   1.274   1_554  A
O500       Cd509   2.063       .  S
O501        C515   1.276       .  A
O501       Cd505   2.078       .  S
O502        C513   1.275       .  A
O502       Cd505   2.072       .  S
Zn503       O514   2.024       .  S
Zn503       O516   2.022       .  S
Zn503       O508   1.949   1_554  S
O504        C515   1.275   1_554  A
O504       Cd509   2.070       .  S
Cd505       O507   2.062       .  S
Cd505       O508   2.002       .  S
Cd506       O510   2.084       .  S
Cd506       O519   2.083       .  S
Cd506       O508   2.007       .  S
O507        C517   1.275       .  A
O508       Cd509   1.996   1_556  S
Cd509       O511   2.068       .  S
O510        C517   1.277       .  A
C512        C607   1.485       .  S
C512        O516   1.275       .  A
C513        C637   1.484       .  S
C515        C627   1.484       .  S
C517        C544   1.483       .  S
C518        C617   1.484   1_556  S
C518        O519   1.277       .  A
O520        C536   1.276       .  A
O520       Zn526   2.029       .  S
C521        C557   1.485       .  S
C521        O537   1.277       .  A
C521        O534   1.276       .  A
O522        C535   1.274       .  A
O522       Cd529   2.054       .  S
O523        C541   1.277       .  A
O523       Cd532   2.078       .  S
O524        C538   1.275       .  A
O524       Cd528   2.068       .  S
O525        C536   1.273       .  A
O525       Cd528   2.054       .  S
Zn526       O537   2.034       .  S
Zn526       O539   2.037       .  S
Zn526       O531   1.957       .  S
O527        C538   1.276       .  A
O527       Cd532   2.075       .  S
Cd528       O530   2.067       .  S
Cd528       O531   1.998       .  S
Cd529       O533   2.067       .  S
Cd529       O542   2.067       .  S
Cd529       O531   1.993       .  S
O530        C540   1.274       .  A
O531       Cd532   1.999       .  S
Cd532       O534   2.070       .  S
O533        C540   1.274       .  A
C535        C597   1.483       .  S
C535        O539   1.277       .  A
C536        C564   1.479       .  S
C538        C577   1.482       .  S
C540        C547   1.482       .  S
C541        C587   1.482       .  S
C541        O542   1.275       .  A
C543        C544   1.406       .  A
C543        C548   1.400       .  A
C543        H549   1.083       .  S
C544        C545   1.407       .  A
C545        C546   1.396       .  A
C545        H550   1.083       .  S
C546        C547   1.405       .  A
C546        H551   1.083       .  S
C547        C548   1.407       .  A
C548        H552   1.083       .  S
C553        C554   1.407       .  A
C553        C558   1.400       .  A
C553        H559   1.083       .  S
C554        C555   1.406       .  A
C555        C556   1.397       .  A
C555        H560   1.083       .  S
C556        C557   1.406       .  A
C556        H561   1.083       .  S
C557        C558   1.406       .  A
C558        H562   1.083       .  S
C563        C564   1.406       .  A
C563        C568   1.398       .  A
C563        H569   1.083       .  S
C564        C565   1.407       .  A
C565        C566   1.396       .  A
C565        H570   1.083       .  S
C566        C567   1.401       .  A
C566        H571   1.083       .  S
C567        C568   1.403       .  A
C568        H572   1.083       .  S
C573        C574   1.403       .  A
C573        C578   1.397       .  A
C573        H579   1.083       .  S
C574        C575   1.403       .  A
C575        C576   1.398       .  A
C575        H580   1.083       .  S
C576        C577   1.407       .  A
C576        H581   1.083       .  S
C577        C578   1.407       .  A
C578        H582   1.083       .  S
C583        C584   1.403       .  A
C583        C588   1.397       .  A
C583        H589   1.083       .  S
C584        C585   1.402       .  A
C585        C586   1.399       .  A
C585        H590   1.083       .  S
C586        C587   1.408       .  A
C586        H591   1.083       .  S
C587        C588   1.406       .  A
C588        H592   1.083       .  S
C593        C594   1.401       .  A
C593        C598   1.394       .  A
C593        H599   1.083       .  S
C594        C595   1.405       .  A
C595        C596   1.401       .  A
C595        H600   1.083       .  S
C596        C597   1.407       .  A
C596        H601   1.083       .  S
C597        C598   1.407       .  A
C598        H602   1.083       .  S
C603        C604   1.405       .  A
C603        C608   1.401       .  A
C603        H609   1.083       .  S
C604        C605   1.404   1_554  A
C605        C606   1.397       .  A
C605        H610   1.083       .  S
C606        C607   1.406   1_556  A
C606        H611   1.083       .  S
C607        C608   1.409       .  A
C608        H612   1.083       .  S
C613        C614   1.405   1_556  A
C613        C618   1.399       .  A
C613        H619   1.083       .  S
C614        C615   1.403       .  A
C615        C616   1.397       .  A
C615        H620   1.083       .  S
C616        C617   1.408       .  A
C616        H621   1.083       .  S
C617        C618   1.406   1_554  A
C618        H622   1.083       .  S
C623        C624   1.403       .  A
C623        C628   1.400       .  A
C623        H629   1.083       .  S
C624        C625   1.401   1_556  A
C625        C626   1.396       .  A
C625        H630   1.083       .  S
C626        C627   1.407   1_554  A
C626        H631   1.083       .  S
C627        C628   1.408       .  A
C628        H632   1.083       .  S
C633        C634   1.404       .  A
C633        C638   1.399       .  A
C633        H639   1.083       .  S
C634        C635   1.404   1_556  A
C635        C636   1.397       .  A
C635        H640   1.083       .  S
C636        C637   1.407   1_554  A
C636        H641   1.083       .  S
C637        C638   1.407       .  A
C638        H642   1.083       .  S
N643        H675   1.042   1_554  S
N643        C647   1.353       .  A
N644        C652   1.350       .  A
N645        H676   1.042       .  S
N645        C649   1.352   1_556  A
N646        C654   1.353       .  A
C647        C655   1.387       .  A
C647        C663   1.416   1_554  A
C648        C664   1.414       .  A
C648        C656   1.387       .  A
C649        C657   1.387       .  A
C649        C666   1.414   1_554  A
C650        C665   1.414       .  A
C650        C658   1.387       .  A
C651        C663   1.413       .  A
C651        C659   1.387       .  A
C652        C666   1.410       .  A
C652        C660   1.385       .  A
C653        C661   1.386   1_554  A
C653        C664   1.415       .  A
C654        C662   1.386   1_554  A
C654        C665   1.415       .  A
C655        H667   1.082       .  S
C656        H668   1.082       .  S
C657        H669   1.082       .  S
C658        H670   1.082       .  S
C659        H671   1.082       .  S
C660        H672   1.082       .  S
C661        H673   1.082       .  S
C662        H674   1.082       .  S
C663        C848   1.490       .  S
C664        C818   1.493       .  S
C665        C828   1.492       .  S
C666        C838   1.484       .  S
N677        H709   1.037       .  S
N677        C681   1.354       .  A
N678        C686   1.351   1_455  A
N679        H710   1.038       .  S
N679        C683   1.354       .  A
N680        C688   1.352   1_455  A
C681        C689   1.388       .  A
C681        C697   1.418       .  A
C682        C698   1.415       .  A
C682        C690   1.387       .  A
C683        C691   1.387       .  A
C683        C700   1.416       .  A
C684        C699   1.416       .  A
C684        C692   1.387       .  A
C685        C697   1.414       .  A
C685        C693   1.386       .  A
C686        C700   1.413       .  A
C686        C694   1.386       .  A
C687        C695   1.386       .  A
C687        C698   1.414       .  A
C688        C696   1.386       .  A
C688        C699   1.413       .  A
C689        H701   1.082       .  S
C690        H702   1.082       .  S
C691        H703   1.082       .  S
C692        H704   1.082       .  S
C693        H705   1.082       .  S
C694        H706   1.082       .  S
C695        H707   1.082       .  S
C696        H708   1.082       .  S
C697        C808   1.488       .  S
C698        C781   1.484       .  S
C699        C788   1.488       .  S
C700        C798   1.486       .  S
O711        C727   1.276   1_554  A
O711       Zn717   2.023       .  S
C712        C768   1.484       .  S
C712        O728   1.275       .  A
C712        O725   1.275       .  A
O713        C726   1.276   1_556  A
O713       Cd720   2.077       .  S
O714        C732   1.274   1_554  A
O714       Cd723   2.063       .  S
O715        C729   1.276       .  A
O715       Cd719   2.078       .  S
O716        C727   1.275       .  A
O716       Cd719   2.072       .  S
Zn717       O728   2.024       .  S
Zn717       O730   2.022       .  S
Zn717       O722   1.949   1_554  S
O718        C729   1.275   1_554  A
O718       Cd723   2.070       .  S
Cd719       O721   2.062       .  S
Cd719       O722   2.002       .  S
Cd720       O724   2.084       .  S
Cd720       O733   2.083       .  S
Cd720       O722   2.007       .  S
O721        C731   1.275       .  A
O722       Cd723   1.996   1_556  S
Cd723       O725   2.068       .  S
O724        C731   1.277       .  A
C726        C821   1.485       .  S
C726        O730   1.275       .  A
C727        C851   1.484       .  S
C729        C841   1.484       .  S
C731        C758   1.483       .  S
C732        C831   1.484   1_556  S
C732        O733   1.277       .  A
O734        C750   1.276       .  A
O734       Zn740   2.029       .  S
C735        C771   1.485       .  S
C735        O751   1.277       .  A
C735        O748   1.276       .  A
O736        C749   1.274       .  A
O736       Cd743   2.054       .  S
O737        C755   1.277       .  A
O737       Cd746   2.078       .  S
O738        C752   1.275       .  A
O738       Cd742   2.068       .  S
O739        C750   1.273       .  A
O739       Cd742   2.054       .  S
Zn740       O751   2.034       .  S
Zn740       O753   2.037       .  S
Zn740       O745   1.957       .  S
O741        C752   1.276       .  A
O741       Cd746   2.075       .  S
Cd742       O744   2.067       .  S
Cd742       O745   1.998       .  S
Cd743       O747   2.067       .  S
Cd743       O756   2.067       .  S
Cd743       O745   1.993       .  S
O744        C754   1.274       .  A
O745       Cd746   1.999       .  S
Cd746       O748   2.070       .  S
O747        C754   1.274       .  A
C749        C811   1.483       .  S
C749        O753   1.277       .  A
C750        C778   1.479       .  S
C752        C791   1.482       .  S
C754        C761   1.482       .  S
C755        C801   1.482       .  S
C755        O756   1.275       .  A
C757        C758   1.406       .  A
C757        C762   1.400       .  A
C757        H763   1.083       .  S
C758        C759   1.407       .  A
C759        C760   1.396       .  A
C759        H764   1.083       .  S
C760        C761   1.405       .  A
C760        H765   1.083       .  S
C761        C762   1.407       .  A
C762        H766   1.083       .  S
C767        C768   1.407       .  A
C767        C772   1.400       .  A
C767        H773   1.083       .  S
C768        C769   1.406       .  A
C769        C770   1.397       .  A
C769        H774   1.083       .  S
C770        C771   1.406       .  A
C770        H775   1.083       .  S
C771        C772   1.406       .  A
C772        H776   1.083       .  S
C777        C778   1.406       .  A
C777        C782   1.398       .  A
C777        H783   1.083       .  S
C778        C779   1.407       .  A
C779        C780   1.396       .  A
C779        H784   1.083       .  S
C780        C781   1.401       .  A
C780        H785   1.083       .  S
C781        C782   1.403       .  A
C782        H786   1.083       .  S
C787        C788   1.403       .  A
C787        C792   1.397       .  A
C787        H793   1.083       .  S
C788        C789   1.403       .  A
C789        C790   1.398       .  A
C789        H794   1.083       .  S
C790        C791   1.407       .  A
C790        H795   1.083       .  S
C791        C792   1.407       .  A
C792        H796   1.083       .  S
C797        C798   1.403       .  A
C797        C802   1.397       .  A
C797        H803   1.083       .  S
C798        C799   1.402       .  A
C799        C800   1.399       .  A
C799        H804   1.083       .  S
C800        C801   1.408       .  A
C800        H805   1.083       .  S
C801        C802   1.406       .  A
C802        H806   1.083       .  S
C807        C808   1.401       .  A
C807        C812   1.394       .  A
C807        H813   1.083       .  S
C808        C809   1.405       .  A
C809        C810   1.401       .  A
C809        H814   1.083       .  S
C810        C811   1.407       .  A
C810        H815   1.083       .  S
C811        C812   1.407       .  A
C812        H816   1.083       .  S
C817        C818   1.405       .  A
C817        C822   1.401       .  A
C817        H823   1.083       .  S
C818        C819   1.404   1_554  A
C819        C820   1.397       .  A
C819        H824   1.083       .  S
C820        C821   1.406   1_556  A
C820        H825   1.083       .  S
C821        C822   1.409       .  A
C822        H826   1.083       .  S
C827        C828   1.405   1_556  A
C827        C832   1.399       .  A
C827        H833   1.083       .  S
C828        C829   1.403       .  A
C829        C830   1.397       .  A
C829        H834   1.083       .  S
C830        C831   1.408       .  A
C830        H835   1.083       .  S
C831        C832   1.406   1_554  A
C832        H836   1.083       .  S
C837        C838   1.403       .  A
C837        C842   1.400       .  A
C837        H843   1.083       .  S
C838        C839   1.401   1_556  A
C839        C840   1.396       .  A
C839        H844   1.083       .  S
C840        C841   1.407   1_554  A
C840        H845   1.083       .  S
C841        C842   1.408       .  A
C842        H846   1.083       .  S
C847        C848   1.404       .  A
C847        C852   1.399       .  A
C847        H853   1.083       .  S
C848        C849   1.404   1_556  A
C849        C850   1.397       .  A
C849        H854   1.083       .  S
C850        C851   1.407   1_554  A
C850        H855   1.083       .  S
C851        C852   1.407       .  A
C852        H856   1.083       .  S
