geometry optimzed in LAMMPS
_audit_creation_date              2020-11-30 
_audit_creation_method            'lammps2cif' 
_symmetry_space_group_name_H-M    'P1' 
_symmetry_Int_Tables_number       1 
_symmetry_cell_setting            triclinic 
loop_ 
_symmetry_equiv_pos_as_xyz 
  x,y,z 
_cell_length_a                    31.73964744 
_cell_length_b                    26.23113430478263 
_cell_length_c                    30.34265244619045 
_cell_angle_alpha                 81.80382982313898 
_cell_angle_beta                  80.73508895704275 
_cell_angle_gamma                 90.07956912924466 
loop_ 
_atom_site_label 
_atom_site_type_symbol 
_atom_site_fract_x 
_atom_site_fract_y 
_atom_site_fract_z 
_atom_site_charge 
O1          O  0.45214650  0.44699504  0.04563885    -0.72600
O2          O  0.04047592  0.05093986  0.02863912    -0.72600
O3          O  0.45424138  0.05112254  0.03419198    -0.72600
O4          O  0.03842399  0.44685203  0.04007918    -0.72700
O5          O  0.04572233  0.44859599  0.46541580    -0.72600
O6          O  0.46153290  0.05285991  0.45952604    -0.72600
O7          O  0.04780847  0.05272182  0.45396425    -0.72600
O8          O  0.45948932  0.44877338  0.47096094    -0.72600
Ni9        Ni  0.49606805  0.49891807  0.03982070     1.25400
Ni10       Ni  0.00389158  0.00079691  0.45978433     1.25400
C11         C  0.44111170  0.43135222  0.51099231     0.89600
C12         C  0.05885005  0.06836399  0.48860505     0.89500
C13         C  0.44385420  0.06861524  0.99594857     0.89600
C14         C  0.05610648  0.43109966  0.00366028     0.89700
O15         O  0.04055305  0.05106530  0.27866299    -0.72600
O16         O  0.45223228  0.44711852  0.29566111    -0.72600
O17         O  0.03850802  0.44697881  0.29009639    -0.72600
O18         O  0.45431955  0.05124441  0.28421095    -0.72700
O19         O  0.46161423  0.05298538  0.20954804    -0.72600
O20         O  0.04579909  0.44871757  0.21543364    -0.72600
O21         O  0.45956445  0.44889763  0.22098680    -0.72600
O22         O  0.04789170  0.05284511  0.20398806    -0.72600
Ni23       Ni  0.49615006  0.49904255  0.28984025     1.25400
Ni24       Ni  0.00397127  0.00092080  0.20980568     1.25400
C25         C  0.05892991  0.06848671  0.23863140     0.89600
C26         C  0.44118923  0.43147741  0.26102055     0.89500
C27         C  0.05618638  0.43122449  0.25367692     0.89600
C28         C  0.44393124  0.06873657  0.24596727     0.89700
O29         O  0.17959453  0.34398051  0.03991637    -0.79400
O30         O  0.33155460  0.19299975  0.01809438    -0.63700
O31         O  0.25255096  0.29908945  0.49539028    -1.10300
C32         C  0.16443271  0.15940311  0.47820902     1.07900
O33         O  0.32036077  0.15568671  0.45972150    -0.76900
O34         O  0.26260737  0.19486130  0.40907763    -0.64500
Ni35       Ni  0.24093394  0.35011593  0.03483610     1.34900
C36         C  0.24625611  0.23811480  0.39861864     0.86600
O37         O  0.33716861  0.29517576  0.01059885    -0.77500
O38         O  0.30101132  0.36353120  0.03224683    -0.87700
C39         C  0.34222160  0.16193411  0.49019747     0.86200
O40         O  0.23744276  0.30495899  0.09051950    -0.65900
O41         O  0.19895713  0.13624819  0.46723457    -0.85200
C42         C  0.25375717  0.26168709  0.10099631     0.87000
C43         C  0.33552990  0.34032888  0.02135161     1.08600
H44         H  0.23712062  0.18204400  0.03386490     0.40400
O45         O  0.24741079  0.20060675  0.00421368    -1.07900
O46         O  0.22365381  0.26205787  0.42717118    -0.64500
Ni47       Ni  0.20723643  0.25267583  0.49175735     1.26300
O48         O  0.27627902  0.23766396  0.07244675    -0.64800
O49         O  0.16278601  0.20451661  0.48904599    -0.77100
C50         C  0.15772716  0.33774863  0.00944108     0.86400
O51         O  0.16839159  0.30669061  0.48154488    -0.64200
Ni52       Ni  0.25902975  0.14961999  0.46472582     1.27400
Ni53       Ni  0.29271951  0.24702276  0.00786303     1.26100
H54         H  0.26285258  0.31764695  0.46571289     0.40900
O55         O  0.17967835  0.34415371  0.28990130    -0.79000
O56         O  0.33164895  0.19315089  0.26808170    -0.63700
O57         O  0.25262961  0.29923129  0.24541093    -1.10300
C58         C  0.16450818  0.15951102  0.22827407     1.07900
O59         O  0.32044354  0.15585618  0.20970955    -0.76900
O60         O  0.26259597  0.19487877  0.15910588    -0.64500
Ni61       Ni  0.24100922  0.35022052  0.28489818     1.34900
C62         C  0.24628183  0.23815080  0.14862893     0.86600
O63         O  0.33725364  0.29532494  0.26057980    -0.77500
O64         O  0.30108158  0.36359297  0.28239054    -0.87700
C65         C  0.34231056  0.16208726  0.24018536     0.86200
O66         O  0.23743088  0.30497972  0.34054694    -0.65900
O67         O  0.19902643  0.13630810  0.21737856    -0.85200
C68         C  0.25378259  0.26172660  0.35100633     0.87000
C69         C  0.33560632  0.34043846  0.27141667     1.08600
H70         H  0.23718892  0.18219351  0.28391095     0.40400
O71         O  0.24749017  0.20075050  0.25423466    -1.07900
O72         O  0.22376021  0.26217427  0.17717835    -0.64500
Ni73       Ni  0.20732008  0.25281635  0.24176187     1.26300
O74         O  0.27638553  0.23778371  0.32245410    -0.64800
O75         O  0.16287014  0.20466419  0.23902669    -0.77100
C76         C  0.15781806  0.33790517  0.25942515     0.86400
O77         O  0.16848583  0.30684015  0.23153023    -0.64200
Ni78       Ni  0.25910406  0.14972196  0.21478938     1.27400
Ni79       Ni  0.29280392  0.24716510  0.25786795     1.26100
H80         H  0.26292061  0.31779413  0.21575840     0.40900
C81         C  0.11958708  0.36663656  0.25724403    -0.11400
C82         C  0.08945593  0.39438492  0.25560241    -0.13000
C83         C  0.37496586  0.36793833  0.27010763    -0.11400
C84         C  0.40633258  0.39500374  0.26695021    -0.13000
C85         C  0.41065695  0.10557409  0.24403813    -0.11400
C86         C  0.38053232  0.13333333  0.24237754    -0.13000
C87         C  0.09378023  0.10496472  0.23271230    -0.11400
C88         C  0.12514312  0.13202859  0.22957707    -0.13000
C89         C  0.11950485  0.36650184  0.00724959    -0.11400
C90         C  0.08938007  0.39426107  0.00558976    -0.13000
C91         C  0.40625729  0.39487583  0.01691486    -0.11400
C92         C  0.37489458  0.36781184  0.02004938    -0.13000
C93         C  0.41058368  0.10545391  0.49401826    -0.11400
C94         C  0.38045268  0.13320258  0.49237720    -0.13000
C95         C  0.09370620  0.10483821  0.48267594    -0.11400
C96         C  0.12507286  0.13190369  0.47951852    -0.13000
O97         O  0.45214847  0.44699491  0.54563586    -0.72600
O98         O  0.04047393  0.05094422  0.52863855    -0.72600
O99         O  0.45423969  0.05112248  0.53418878    -0.72600
O100        O  0.03842560  0.44685650  0.54007866    -0.72700
O101        O  0.04571851  0.44859186  0.96541643    -0.72600
O102        O  0.46153229  0.05286006  0.95952939    -0.72600
O103        O  0.04780806  0.05271782  0.95396494    -0.72600
O104        O  0.45948525  0.44877381  0.97096404    -0.72600
Ni105      Ni  0.49606796  0.49892026  0.53981889     1.25400
Ni106      Ni  0.00388925  0.00079503  0.95978630     1.25400
C107        C  0.44110804  0.43135329  0.01099568     0.89600
C108        C  0.05885148  0.06835905  0.98860526     0.89500
C109        C  0.44385332  0.06861462  0.49594489     0.89600
C110        C  0.05610965  0.43110462  0.50366012     0.89700
O111        O  0.04055252  0.05106514  0.77866367    -0.72600
O112        O  0.45223003  0.44712051  0.79566230    -0.72600
O113        O  0.03850585  0.44697863  0.79009938    -0.72600
O114        O  0.45431929  0.05124645  0.78420973    -0.72700
O115        O  0.46161489  0.05298516  0.70954703    -0.72600
O116        O  0.04579784  0.44871540  0.71543681    -0.72600
O117        O  0.45956340  0.44889748  0.72098815    -0.72600
O118        O  0.04789206  0.05284308  0.70398890    -0.72600
Ni119      Ni  0.49614864  0.49904362  0.78984118     1.25400
Ni120      Ni  0.00397101  0.00091952  0.70980681     1.25400
C121        C  0.05893002  0.06848541  0.73863204     0.89600
C122        C  0.44118731  0.43147866  0.76102189     0.89500
C123        C  0.05618433  0.43122287  0.75368057     0.89600
C124        C  0.44393171  0.06873786  0.74596551     0.89700
O125        O  0.17959883  0.34398562  0.53991627    -0.79400
O126        O  0.33155406  0.19299790  0.51809361    -0.63700
O127        O  0.25254846  0.29908766  0.99539055    -1.10300
C128        C  0.16443461  0.15939787  0.97820845     1.07900
O129        O  0.32036292  0.15568643  0.95972286    -0.76900
O130        O  0.26260965  0.19485977  0.90907784    -0.64500
Ni131      Ni  0.24093839  0.35011814  0.53483564     1.34900
C132        C  0.24625643  0.23811209  0.89861896     0.86600
O133        O  0.33717121  0.29517355  0.51059812    -0.77500
O134        O  0.30101621  0.36353061  0.53224585    -0.87700
C135        C  0.34222296  0.16193510  0.99019923     0.86200
O136        O  0.23744598  0.30496139  0.59051920    -0.65900
O137        O  0.19895977  0.13624458  0.96723353    -0.85200
C138        C  0.25375878  0.26168854  0.60099600     0.87000
C139        C  0.33553400  0.34032692  0.52135026     1.08600
H140        H  0.23711952  0.18204619  0.53386491     0.40400
O141        O  0.24741028  0.20060881  0.50421341    -1.07900
O142        O  0.22365267  0.26205377  0.92717153    -0.64500
Ni143      Ni  0.20723535  0.25267195  0.99175764     1.26300
O144        O  0.27627988  0.23766455  0.57244648    -0.64800
O145        O  0.16278647  0.20451089  0.98904637    -0.77100
C146        C  0.15773083  0.33775432  0.50944138     0.86400
O147        O  0.16838890  0.30668495  0.98154480    -0.64200
Ni148      Ni  0.25903205  0.14961818  0.96472593     1.27400
Ni149      Ni  0.29272045  0.24702270  0.50786268     1.26100
H150        H  0.26284945  0.31764524  0.96571343     0.40900
O151        O  0.17967596  0.34415027  0.78990413    -0.79000
O152        O  0.33164964  0.19315275  0.76807979    -0.63700
O153        O  0.25262816  0.29923170  0.74541194    -1.10300
C154        C  0.16450840  0.15951048  0.72827317     1.07900
O155        O  0.32044390  0.15585788  0.70970784    -0.76900
O156        O  0.26259584  0.19487960  0.65910526    -0.64500
Ni157      Ni  0.24100674  0.35021932  0.78490051     1.34900
C158        C  0.24628238  0.23815204  0.64862853     0.86600
O159        O  0.33725220  0.29532691  0.76058012    -0.77500
O160        O  0.30107892  0.36359343  0.78239261    -0.87700
C161        C  0.34231136  0.16208943  0.74018313     0.86200
O162        O  0.23742961  0.30497722  0.84054831    -0.65900
O163        O  0.19902686  0.13630786  0.71737797    -0.85200
C164        C  0.25378231  0.26172453  0.85100683     0.87000
C165        C  0.33560408  0.34044003  0.77141794     1.08600
H166        H  0.23718887  0.18219349  0.78391054     0.40400
O167        O  0.24749013  0.20075100  0.75423391    -1.07900
O168        O  0.22376064  0.26217552  0.67717800    -0.64500
Ni169      Ni  0.20731940  0.25281632  0.74176164     1.26300
O170        O  0.27638568  0.23778291  0.82245394    -0.64800
O171        O  0.16287002  0.20466387  0.73902531    -0.77100
C172        C  0.15781576  0.33790284  0.75942764     0.86400
O173        O  0.16848433  0.30683969  0.73153113    -0.64200
Ni174      Ni  0.25910441  0.14972269  0.71478843     1.27400
Ni175      Ni  0.29280337  0.24716619  0.75786765     1.26100
H176        H  0.26291898  0.31779560  0.71575978     0.40900
C177        C  0.11958429  0.36663370  0.75724784    -0.11400
C178        C  0.08945323  0.39438242  0.75560704    -0.13000
C179        C  0.37496323  0.36794065  0.77010901    -0.11400
C180        C  0.40633012  0.39500576  0.76695162    -0.13000
C181        C  0.41065803  0.10557629  0.74403508    -0.11400
C182        C  0.38053357  0.13333593  0.74237456    -0.13000
C183        C  0.09378062  0.10496319  0.73271261    -0.11400
C184        C  0.12514349  0.13202737  0.72957672    -0.13000
C185        C  0.11950882  0.36650816  0.50725057    -0.11400
C186        C  0.08938397  0.39426719  0.50559059    -0.13000
C187        C  0.40626213  0.39487319  0.51691093    -0.11400
C188        C  0.37489947  0.36780885  0.52004644    -0.13000
C189        C  0.41058498  0.10545522  0.99402268    -0.11400
C190        C  0.38045404  0.13320392  0.99238067    -0.13000
C191        C  0.09370871  0.10483186  0.98267523    -0.11400
C192        C  0.12507549  0.13189720  0.97951754    -0.13000
O193        O  0.45214643  0.94699506  0.04563884    -0.72600
O194        O  0.04047595  0.55093971  0.02863913    -0.72600
O195        O  0.45424138  0.55112254  0.03419199    -0.72600
O196        O  0.03842410  0.94685224  0.04007918    -0.72700
O197        O  0.04572250  0.94859601  0.46541580    -0.72600
O198        O  0.46153293  0.55286003  0.45952603    -0.72600
O199        O  0.04780834  0.55272195  0.45396425    -0.72600
O200        O  0.45948937  0.94877334  0.47096096    -0.72600
Ni201      Ni  0.49606803  0.99891813  0.03982071     1.25400
Ni202      Ni  0.00389145  0.50079697  0.45978432     1.25400
C203        C  0.44111174  0.93135223  0.51099233     0.89600
C204        C  0.05884998  0.56836404  0.48860506     0.89500
C205        C  0.44385418  0.56861529  0.99594859     0.89600
C206        C  0.05610653  0.93109979  0.00366029     0.89700
O207        O  0.04055303  0.55106519  0.27866300    -0.72600
O208        O  0.45223220  0.94711865  0.29566112    -0.72600
O209        O  0.03850815  0.94697893  0.29009637    -0.72600
O210        O  0.45431958  0.55124437  0.28421093    -0.72700
O211        O  0.46161414  0.55298522  0.20954805    -0.72600
O212        O  0.04579902  0.94871754  0.21543365    -0.72600
O213        O  0.45956446  0.94889776  0.22098680    -0.72600
O214        O  0.04789168  0.55284499  0.20398806    -0.72600
Ni215      Ni  0.49615003  0.99904261  0.28984026     1.25400
Ni216      Ni  0.00397127  0.50092069  0.20980568     1.25400
C217        C  0.05892992  0.56848656  0.23863140     0.89600
C218        C  0.44118921  0.93147753  0.26102055     0.89500
C219        C  0.05618641  0.93122454  0.25367691     0.89600
C220        C  0.44393120  0.56873650  0.24596727     0.89700
O221        O  0.17959448  0.84398064  0.03991639    -0.79400
O222        O  0.33155457  0.69299986  0.01809434    -0.63700
O223        O  0.25255093  0.79908946  0.49539028    -1.10300
C224        C  0.16443265  0.65940314  0.47820903     1.07900
O225        O  0.32036070  0.65568663  0.45972146    -0.76900
O226        O  0.26260723  0.69486114  0.40907763    -0.64500
Ni227      Ni  0.24093389  0.85011593  0.03483606     1.34900
C228        C  0.24625600  0.73811467  0.39861863     0.86600
O229        O  0.33716862  0.79517570  0.01059887    -0.77500
O230        O  0.30101126  0.86353116  0.03224662    -0.87700
C231        C  0.34222152  0.66193402  0.49019745     0.86200
O232        O  0.23744273  0.80495905  0.09051952    -0.65900
O233        O  0.19895705  0.63624818  0.46723465    -0.85200
C234        C  0.25375715  0.76168716  0.10099631     0.87000
C235        C  0.33552986  0.84032883  0.02135155     1.08600
H236        H  0.23712056  0.68204424  0.03386477     0.40400
O237        O  0.24741077  0.70060685  0.00421367    -1.07900
O238        O  0.22365369  0.76205777  0.42717115    -0.64500
Ni239      Ni  0.20723638  0.75267588  0.49175731     1.26300
O240        O  0.27627894  0.73766401  0.07244673    -0.64800
O241        O  0.16278593  0.70451668  0.48904596    -0.77100
C242        C  0.15772715  0.83774873  0.00944108     0.86400
O243        O  0.16839163  0.80669075  0.48154481    -0.64200
Ni244      Ni  0.25902969  0.64961990  0.46472584     1.27400
Ni245      Ni  0.29271949  0.74702284  0.00786300     1.26100
H246        H  0.26285243  0.81764684  0.46571301     0.40900
O247        O  0.17967833  0.84415362  0.28990131    -0.79000
O248        O  0.33164888  0.69315098  0.26808172    -0.63700
O249        O  0.25262957  0.79923140  0.24541094    -1.10300
C250        C  0.16450820  0.65951108  0.22827397     1.07900
O251        O  0.32044362  0.65585635  0.20970951    -0.76900
O252        O  0.26259613  0.69487892  0.15910587    -0.64500
Ni253      Ni  0.24100922  0.85022057  0.28489819     1.34900
C254        C  0.24628190  0.73815090  0.14862894     0.86600
O255        O  0.33725367  0.79532499  0.26057981    -0.77500
O256        O  0.30108158  0.86359300  0.28239051    -0.87700
C257        C  0.34231056  0.66208736  0.24018538     0.86200
O258        O  0.23743102  0.80497976  0.34054695    -0.65900
O259        O  0.19902650  0.63630826  0.21737850    -0.85200
C260        C  0.25378262  0.76172655  0.35100634     0.87000
C261        C  0.33560633  0.84043853  0.27141666     1.08600
H262        H  0.23718902  0.68219364  0.28391082     0.40400
O263        O  0.24749015  0.70075061  0.25423467    -1.07900
O264        O  0.22376022  0.76217431  0.17717837    -0.64500
Ni265      Ni  0.20732001  0.75281642  0.24176186     1.26300
O266        O  0.27638554  0.73778367  0.32245410    -0.64800
O267        O  0.16287006  0.70466425  0.23902661    -0.77100
C268        C  0.15781801  0.83790514  0.25942516     0.86400
O269        O  0.16848571  0.80684012  0.23153022    -0.64200
Ni270      Ni  0.25910414  0.64972212  0.21478935     1.27400
Ni271      Ni  0.29280390  0.74716521  0.25786795     1.26100
H272        H  0.26292062  0.81779428  0.21575841     0.40900
C273        C  0.11958710  0.86663664  0.25724402    -0.11400
C274        C  0.08945600  0.89438504  0.25560238    -0.13000
C275        C  0.37496584  0.86793849  0.27010760    -0.11400
C276        C  0.40633256  0.89500389  0.26695017    -0.13000
C277        C  0.41065698  0.60557416  0.24403815    -0.11400
C278        C  0.38053234  0.63333344  0.24237761    -0.13000
C279        C  0.09378029  0.60496455  0.23271229    -0.11400
C280        C  0.12514317  0.63202848  0.22957700    -0.13000
C281        C  0.11950477  0.86650181  0.00724960    -0.11400
C282        C  0.08938001  0.89426107  0.00558980    -0.13000
C283        C  0.40625730  0.89487569  0.01691485    -0.11400
C284        C  0.37489452  0.86781181  0.02004938    -0.13000
C285        C  0.41058356  0.60545379  0.49401835    -0.11400
C286        C  0.38045254  0.63320243  0.49237722    -0.13000
C287        C  0.09370623  0.60483813  0.48267597    -0.11400
C288        C  0.12507284  0.63190371  0.47951853    -0.13000
O289        O  0.45214843  0.94699501  0.54563588    -0.72600
O290        O  0.04047382  0.55094427  0.52863856    -0.72600
O291        O  0.45423974  0.55112243  0.53418878    -0.72600
O292        O  0.03842568  0.94685650  0.54007868    -0.72700
O293        O  0.04571859  0.94859195  0.96541644    -0.72600
O294        O  0.46153228  0.55286016  0.95952940    -0.72600
O295        O  0.04780806  0.55271779  0.95396494    -0.72600
O296        O  0.45948528  0.94877365  0.97096404    -0.72600
Ni297      Ni  0.49606789  0.99892030  0.53981890     1.25400
Ni298      Ni  0.00388922  0.50079507  0.95978630     1.25400
C299        C  0.44110803  0.93135318  0.01099569     0.89600
C300        C  0.05885148  0.56835897  0.98860527     0.89500
C301        C  0.44385333  0.56861464  0.49594492     0.89600
C302        C  0.05610977  0.93110465  0.50366013     0.89700
O303        O  0.04055254  0.55106533  0.77866367    -0.72600
O304        O  0.45223000  0.94712059  0.79566230    -0.72600
O305        O  0.03850565  0.94697843  0.79009940    -0.72600
O306        O  0.45431922  0.55124645  0.78420972    -0.72700
O307        O  0.46161474  0.55298512  0.70954703    -0.72600
O308        O  0.04579786  0.94871550  0.71543678    -0.72600
O309        O  0.45956353  0.94889747  0.72098815    -0.72600
O310        O  0.04789219  0.55284303  0.70398891    -0.72600
Ni311      Ni  0.49614871  0.99904355  0.78984119     1.25400
Ni312      Ni  0.00397109  0.50091952  0.70980683     1.25400
C313        C  0.05893012  0.56848545  0.73863203     0.89600
C314        C  0.44118734  0.93147873  0.76102188     0.89500
C315        C  0.05618424  0.93122282  0.75368057     0.89600
C316        C  0.44393162  0.56873785  0.74596552     0.89700
O317        O  0.17959881  0.84398560  0.53991631    -0.79400
O318        O  0.33155399  0.69299781  0.51809359    -0.63700
O319        O  0.25254845  0.79908771  0.99539053    -1.10300
C320        C  0.16443462  0.65939790  0.97820845     1.07900
O321        O  0.32036287  0.65568638  0.95972291    -0.76900
O322        O  0.26260956  0.69485968  0.90907781    -0.64500
Ni323      Ni  0.24093836  0.85011815  0.53483566     1.34900
C324        C  0.24625647  0.73811207  0.89861895     0.86600
O325        O  0.33717121  0.79517362  0.51059810    -0.77500
O326        O  0.30101618  0.86353065  0.53224590    -0.87700
C327        C  0.34222290  0.66193514  0.99019925     0.86200
O328        O  0.23744591  0.80496128  0.59051913    -0.65900
O329        O  0.19895980  0.63624465  0.96723355    -0.85200
C330        C  0.25375875  0.76168848  0.60099599     0.87000
C331        C  0.33553398  0.84032702  0.52135024     1.08600
H332        H  0.23711969  0.68204652  0.53386452     0.40400
O333        O  0.24741024  0.70060881  0.50421340    -1.07900
O334        O  0.22365282  0.76205385  0.92717153    -0.64500
Ni335      Ni  0.20723538  0.75267204  0.99175760     1.26300
O336        O  0.27627995  0.73766450  0.57244651    -0.64800
O337        O  0.16278648  0.70451094  0.98904635    -0.77100
C338        C  0.15773084  0.83775436  0.50944138     0.86400
O339        O  0.16838898  0.80668508  0.98154478    -0.64200
Ni340      Ni  0.25903203  0.64961823  0.96472597     1.27400
Ni341      Ni  0.29272044  0.74702270  0.50786267     1.26100
H342        H  0.26284955  0.81764542  0.96571330     0.40900
O343        O  0.17967580  0.84415009  0.78990424    -0.79000
O344        O  0.33164966  0.69315276  0.76807975    -0.63700
O345        O  0.25262811  0.79923163  0.74541193    -1.10300
C346        C  0.16450845  0.65951044  0.72827318     1.07900
O347        O  0.32044388  0.65585780  0.70970785    -0.76900
O348        O  0.26259580  0.69487963  0.65910531    -0.64500
Ni349      Ni  0.24100664  0.85021921  0.78490052     1.34900
C350        C  0.24628228  0.73815204  0.64862854     0.86600
O351        O  0.33725225  0.79532690  0.76058014    -0.77500
O352        O  0.30107884  0.86359335  0.78239257    -0.87700
C353        C  0.34231136  0.66208942  0.74018311     0.86200
O354        O  0.23742972  0.80497725  0.84054835    -0.65900
O355        O  0.19902691  0.63630786  0.71737794    -0.85200
C356        C  0.25378233  0.76172449  0.85100683     0.87000
C357        C  0.33560406  0.84044002  0.77141795     1.08600
H358        H  0.23718892  0.68219339  0.78391051     0.40400
O359        O  0.24749013  0.70075094  0.75423388    -1.07900
O360        O  0.22376047  0.76217550  0.67717798    -0.64500
Ni361      Ni  0.20731935  0.75281630  0.74176164     1.26300
O362        O  0.27638558  0.73778278  0.82245392    -0.64800
O363        O  0.16286999  0.70466383  0.73902534    -0.77100
C364        C  0.15781566  0.83790281  0.75942767     0.86400
O365        O  0.16848432  0.80683978  0.73153107    -0.64200
Ni366      Ni  0.25910442  0.64972264  0.71478842     1.27400
Ni367      Ni  0.29280337  0.74716614  0.75786764     1.26100
H368        H  0.26291881  0.81779545  0.71575990     0.40900
C369        C  0.11958419  0.86663366  0.75724785    -0.11400
C370        C  0.08945311  0.89438234  0.75560705    -0.13000
C371        C  0.37496318  0.86794079  0.77010903    -0.11400
C372        C  0.40633007  0.89500593  0.76695158    -0.13000
C373        C  0.41065796  0.60557625  0.74403512    -0.11400
C374        C  0.38053349  0.63333587  0.74237459    -0.13000
C375        C  0.09378076  0.60496311  0.73271258    -0.11400
C376        C  0.12514360  0.63202727  0.72957672    -0.13000
C377        C  0.11950883  0.86650812  0.50725057    -0.11400
C378        C  0.08938401  0.89426717  0.50559059    -0.13000
C379        C  0.40626215  0.89487327  0.51691094    -0.11400
C380        C  0.37489943  0.86780902  0.52004641    -0.13000
C381        C  0.41058495  0.60545533  0.99402269    -0.11400
C382        C  0.38045404  0.63320405  0.99238066    -0.13000
C383        C  0.09370874  0.60483178  0.98267524    -0.11400
C384        C  0.12507551  0.63189715  0.97951754    -0.13000
O385        O  0.95214643  0.44699508  0.04563886    -0.72600
O386        O  0.54047594  0.05093981  0.02863913    -0.72600
O387        O  0.95424140  0.05112250  0.03419198    -0.72600
O388        O  0.53842397  0.44685201  0.04007918    -0.72700
O389        O  0.54572239  0.44859593  0.46541581    -0.72600
O390        O  0.96153291  0.05285991  0.45952604    -0.72600
O391        O  0.54780843  0.05272182  0.45396424    -0.72600
O392        O  0.95948923  0.44877338  0.47096094    -0.72600
Ni393      Ni  0.99606804  0.49891807  0.03982071     1.25400
Ni394      Ni  0.50389155  0.00079691  0.45978433     1.25400
C395        C  0.94111163  0.43135220  0.51099231     0.89600
C396        C  0.55885002  0.06836397  0.48860505     0.89500
C397        C  0.94385421  0.06861521  0.99594858     0.89600
C398        C  0.55610648  0.43109964  0.00366029     0.89700
O399        O  0.54055304  0.05106524  0.27866300    -0.72600
O400        O  0.95223221  0.44711856  0.29566111    -0.72600
O401        O  0.53850804  0.44697882  0.29009639    -0.72600
O402        O  0.95431962  0.05124443  0.28421094    -0.72700
O403        O  0.96161421  0.05298537  0.20954804    -0.72600
O404        O  0.54579910  0.44871759  0.21543364    -0.72600
O405        O  0.95956447  0.44889761  0.22098680    -0.72600
O406        O  0.54789162  0.05284517  0.20398806    -0.72600
Ni407      Ni  0.99615002  0.49904256  0.28984026     1.25400
Ni408      Ni  0.50397127  0.00092080  0.20980568     1.25400
C409        C  0.55892986  0.06848672  0.23863140     0.89600
C410        C  0.94118922  0.43147739  0.26102055     0.89500
C411        C  0.55618638  0.43122449  0.25367692     0.89600
C412        C  0.94393122  0.06873655  0.24596728     0.89700
O413        O  0.67959453  0.34398048  0.03991641    -0.79400
O414        O  0.83155462  0.19299977  0.01809437    -0.63700
O415        O  0.75255094  0.29908945  0.49539028    -1.10300
C416        C  0.66443270  0.15940310  0.47820902     1.07900
O417        O  0.82036077  0.15568675  0.45972147    -0.76900
O418        O  0.76260732  0.19486129  0.40907764    -0.64500
Ni419      Ni  0.74093394  0.35011594  0.03483604     1.34900
C420        C  0.74625606  0.23811479  0.39861865     0.86600
O421        O  0.83716861  0.29517572  0.01059890    -0.77500
O422        O  0.80101130  0.36353128  0.03224659    -0.87700
C423        C  0.84222156  0.16193409  0.49019749     0.86200
O424        O  0.73744288  0.30495905  0.09051951    -0.65900
O425        O  0.69895713  0.13624821  0.46723460    -0.85200
C426        C  0.75375721  0.26168709  0.10099631     0.87000
C427        C  0.83552989  0.34032891  0.02135154     1.08600
H428        H  0.73712051  0.18204399  0.03386489     0.40400
O429        O  0.74741072  0.20060674  0.00421368    -1.07900
O430        O  0.72365374  0.26205786  0.42717117    -0.64500
Ni431      Ni  0.70723641  0.25267582  0.49175735     1.26300
O432        O  0.77627894  0.23766389  0.07244673    -0.64800
O433        O  0.66278596  0.20451661  0.48904598    -0.77100
C434        C  0.65772720  0.33774867  0.00944108     0.86400
O435        O  0.66839162  0.30669062  0.48154487    -0.64200
Ni436      Ni  0.75902977  0.14961999  0.46472581     1.27400
Ni437      Ni  0.79271949  0.24702275  0.00786303     1.26100
H438        H  0.76285244  0.31764687  0.46571301     0.40900
O439        O  0.67967838  0.34415372  0.28990128    -0.79000
O440        O  0.83164889  0.19315087  0.26808172    -0.63700
O441        O  0.75262962  0.29923129  0.24541094    -1.10300
C442        C  0.66450823  0.15951099  0.22827406     1.07900
O443        O  0.82044363  0.15585623  0.20970950    -0.76900
O444        O  0.76259613  0.19487879  0.15910587    -0.64500
Ni445      Ni  0.74100927  0.35022054  0.28489817     1.34900
C446        C  0.74628195  0.23815081  0.14862893     0.86600
O447        O  0.83725361  0.29532494  0.26057981    -0.77500
O448        O  0.80108162  0.36359301  0.28239053    -0.87700
C449        C  0.84231055  0.16208726  0.24018538     0.86200
O450        O  0.73743103  0.30497981  0.34054696    -0.65900
O451        O  0.69902651  0.13630811  0.21737858    -0.85200
C452        C  0.75378263  0.26172660  0.35100634     0.87000
C453        C  0.83560633  0.34043847  0.27141667     1.08600
H454        H  0.73718906  0.18219356  0.28391080     0.40400
O455        O  0.74749019  0.20075050  0.25423465    -1.07900
O456        O  0.72376032  0.26217427  0.17717837    -0.64500
Ni457      Ni  0.70732008  0.25281634  0.24176187     1.26300
O458        O  0.77638547  0.23778365  0.32245410    -0.64800
O459        O  0.66287014  0.20466418  0.23902665    -0.77100
C460        C  0.65781806  0.33790519  0.25942514     0.86400
O461        O  0.66848580  0.30684014  0.23153023    -0.64200
Ni462      Ni  0.75910416  0.14972197  0.21478937     1.27400
Ni463      Ni  0.79280390  0.24716509  0.25786796     1.26100
H464        H  0.76292061  0.31779392  0.21575866     0.40900
C465        C  0.61958705  0.36663655  0.25724405    -0.11400
C466        C  0.58945590  0.39438490  0.25560241    -0.13000
C467        C  0.87496588  0.36793831  0.27010761    -0.11400
C468        C  0.90633261  0.39500369  0.26695019    -0.13000
C469        C  0.91065689  0.10557403  0.24403818    -0.11400
C470        C  0.88053228  0.13333330  0.24237762    -0.13000
C471        C  0.59378019  0.10496476  0.23271227    -0.11400
C472        C  0.62514315  0.13202855  0.22957704    -0.13000
C473        C  0.61950486  0.36650181  0.00724961    -0.11400
C474        C  0.58938004  0.39426098  0.00558981    -0.13000
C475        C  0.90625731  0.39487579  0.01691485    -0.11400
C476        C  0.87489455  0.36781187  0.02004936    -0.13000
C477        C  0.91058363  0.10545388  0.49401826    -0.11400
C478        C  0.88045262  0.13320253  0.49237721    -0.13000
C479        C  0.59370618  0.10483818  0.48267595    -0.11400
C480        C  0.62507286  0.13190365  0.47951852    -0.13000
O481        O  0.95214837  0.44699493  0.54563586    -0.72600
O482        O  0.54047387  0.05094422  0.52863855    -0.72600
O483        O  0.95423972  0.05112249  0.53418878    -0.72600
O484        O  0.53842576  0.44685654  0.54007866    -0.72700
O485        O  0.54571859  0.44859191  0.96541642    -0.72600
O486        O  0.96153229  0.05286004  0.95952940    -0.72600
O487        O  0.54780809  0.05271779  0.95396495    -0.72600
O488        O  0.95948524  0.44877379  0.97096405    -0.72600
Ni489      Ni  0.99606785  0.49892027  0.53981889     1.25400
Ni490      Ni  0.50388924  0.00079503  0.95978630     1.25400
C491        C  0.94110802  0.43135328  0.01099569     0.89600
C492        C  0.55885151  0.06835900  0.98860527     0.89500
C493        C  0.94385332  0.06861463  0.49594489     0.89600
C494        C  0.55610977  0.43110463  0.50366012     0.89700
O495        O  0.54055262  0.05106514  0.77866367    -0.72600
O496        O  0.95223004  0.44712056  0.79566229    -0.72600
O497        O  0.53850575  0.44697863  0.79009937    -0.72600
O498        O  0.95431930  0.05124650  0.78420972    -0.72700
O499        O  0.96161476  0.05298510  0.70954704    -0.72600
O500        O  0.54579772  0.44871541  0.71543681    -0.72600
O501        O  0.95956350  0.44889746  0.72098815    -0.72600
O502        O  0.54789221  0.05284303  0.70398890    -0.72600
Ni503      Ni  0.99614871  0.49904363  0.78984119     1.25400
Ni504      Ni  0.50397111  0.00091951  0.70980682     1.25400
C505        C  0.55893013  0.06848540  0.73863204     0.89600
C506        C  0.94118733  0.43147870  0.76102188     0.89500
C507        C  0.55618422  0.43122287  0.75368057     0.89600
C508        C  0.94393168  0.06873789  0.74596552     0.89700
O509        O  0.67959880  0.34398559  0.53991630    -0.79400
O510        O  0.83155404  0.19299789  0.51809362    -0.63700
O511        O  0.75254845  0.29908763  0.99539054    -1.10300
C512        C  0.66443453  0.15939791  0.97820844     1.07900
O513        O  0.82036285  0.15568640  0.95972290    -0.76900
O514        O  0.76260960  0.19485977  0.90907785    -0.64500
Ni515      Ni  0.74093834  0.35011814  0.53483566     1.34900
C516        C  0.74625644  0.23811212  0.89861897     0.86600
O517        O  0.83717121  0.29517357  0.51059813    -0.77500
O518        O  0.80101618  0.36353061  0.53224587    -0.87700
C519        C  0.84222294  0.16193510  0.99019923     0.86200
O520        O  0.73744588  0.30496138  0.59051921    -0.65900
O521        O  0.69895968  0.13624461  0.96723353    -0.85200
C522        C  0.75375867  0.26168852  0.60099600     0.87000
C523        C  0.83553398  0.34032694  0.52135026     1.08600
H524        H  0.73711970  0.18204624  0.53386476     0.40400
O525        O  0.74741032  0.20060880  0.50421339    -1.07900
O526        O  0.72365263  0.26205377  0.92717153    -0.64500
Ni527      Ni  0.70723532  0.25267197  0.99175762     1.26300
O528        O  0.77627981  0.23766456  0.57244648    -0.64800
O529        O  0.66278639  0.20451093  0.98904637    -0.77100
C530        C  0.65773084  0.33775430  0.50944139     0.86400
O531        O  0.66838896  0.30668503  0.98154477    -0.64200
Ni532      Ni  0.75903196  0.14961818  0.96472595     1.27400
Ni533      Ni  0.79272046  0.24702271  0.50786268     1.26100
H534        H  0.76284957  0.31764528  0.96571329     0.40900
O535        O  0.67967586  0.34415027  0.78990415    -0.79000
O536        O  0.83164964  0.19315272  0.76807978    -0.63700
O537        O  0.75262815  0.29923170  0.74541193    -1.10300
C538        C  0.66450845  0.15951045  0.72827318     1.07900
O539        O  0.82044391  0.15585784  0.70970782    -0.76900
O540        O  0.76259577  0.19487955  0.65910528    -0.64500
Ni541      Ni  0.74100668  0.35021931  0.78490052     1.34900
C542        C  0.74628228  0.23815200  0.64862854     0.86600
O543        O  0.83725221  0.29532691  0.76058014    -0.77500
O544        O  0.80107890  0.36359342  0.78239260    -0.87700
C545        C  0.84231133  0.16208937  0.74018315     0.86200
O546        O  0.73742957  0.30497722  0.84054831    -0.65900
O547        O  0.69902688  0.13630775  0.71737799    -0.85200
C548        C  0.75378233  0.26172456  0.85100683     0.87000
C549        C  0.83560408  0.34044002  0.77141795     1.08600
H550        H  0.73718900  0.18219344  0.78391050     0.40400
O551        O  0.74749019  0.20075095  0.75423386    -1.07900
O552        O  0.72376056  0.26217550  0.67717801    -0.64500
Ni553      Ni  0.70731942  0.25281630  0.74176165     1.26300
O554        O  0.77638569  0.23778292  0.82245394    -0.64800
O555        O  0.66287008  0.20466383  0.73902532    -0.77100
C556        C  0.65781569  0.33790283  0.75942765     0.86400
O557        O  0.66848434  0.30683970  0.73153113    -0.64200
Ni558      Ni  0.75910444  0.14972258  0.71478842     1.27400
Ni559      Ni  0.79280339  0.24716618  0.75786764     1.26100
H560        H  0.76291891  0.31779561  0.71575977     0.40900
C561        C  0.61958419  0.36663366  0.75724782    -0.11400
C562        C  0.58945313  0.39438240  0.75560704    -0.13000
C563        C  0.87496324  0.36794064  0.77010902    -0.11400
C564        C  0.90633011  0.39500581  0.76695159    -0.13000
C565        C  0.91065804  0.10557634  0.74403511    -0.11400
C566        C  0.88053354  0.13333591  0.74237458    -0.13000
C567        C  0.59378065  0.10496327  0.73271261    -0.11400
C568        C  0.62514350  0.13202744  0.72957671    -0.13000
C569        C  0.61950890  0.36650818  0.50725052    -0.11400
C570        C  0.58938409  0.39426725  0.50559055    -0.13000
C571        C  0.90626214  0.39487311  0.51691094    -0.11400
C572        C  0.87489945  0.36780883  0.52004643    -0.13000
C573        C  0.91058498  0.10545522  0.99402267    -0.11400
C574        C  0.88045406  0.13320393  0.99238063    -0.13000
C575        C  0.59370873  0.10483182  0.98267524    -0.11400
C576        C  0.62507545  0.13189722  0.97951753    -0.13000
O577        O  0.95214656  0.94699497  0.04563885    -0.72600
O578        O  0.54047595  0.55093973  0.02863912    -0.72600
O579        O  0.95424142  0.55112257  0.03419199    -0.72600
O580        O  0.53842402  0.94685220  0.04007918    -0.72700
O581        O  0.54572243  0.94859601  0.46541580    -0.72600
O582        O  0.96153282  0.55285998  0.45952603    -0.72600
O583        O  0.54780845  0.55272191  0.45396425    -0.72600
O584        O  0.95948936  0.94877336  0.47096095    -0.72600
Ni585      Ni  0.99606808  0.99891813  0.03982070     1.25400
Ni586      Ni  0.50389155  0.50079696  0.45978433     1.25400
C587        C  0.94111171  0.93135229  0.51099233     0.89600
C588        C  0.55885004  0.56836406  0.48860506     0.89500
C589        C  0.94385422  0.56861533  0.99594859     0.89600
C590        C  0.55610654  0.93109982  0.00366029     0.89700
O591        O  0.54055304  0.55106519  0.27866300    -0.72600
O592        O  0.95223232  0.94711861  0.29566111    -0.72600
O593        O  0.53850803  0.94697886  0.29009638    -0.72600
O594        O  0.95431954  0.55124435  0.28421094    -0.72700
O595        O  0.96161419  0.55298526  0.20954804    -0.72600
O596        O  0.54579906  0.94871759  0.21543364    -0.72600
O597        O  0.95956442  0.94889782  0.22098679    -0.72600
O598        O  0.54789167  0.55284499  0.20398806    -0.72600
Ni599      Ni  0.99615011  0.99904263  0.28984025     1.25400
Ni600      Ni  0.50397126  0.50092069  0.20980568     1.25400
C601        C  0.55892991  0.56848656  0.23863139     0.89600
C602        C  0.94118921  0.93147758  0.26102055     0.89500
C603        C  0.55618637  0.93122451  0.25367692     0.89600
C604        C  0.94393122  0.56873652  0.24596727     0.89700
O605        O  0.67959442  0.84398059  0.03991640    -0.79400
O606        O  0.83155459  0.69299985  0.01809434    -0.63700
O607        O  0.75255099  0.79908947  0.49539028    -1.10300
C608        C  0.66443269  0.65940315  0.47820902     1.07900
O609        O  0.82036077  0.65568659  0.45972150    -0.76900
O610        O  0.76260736  0.69486116  0.40907761    -0.64500
Ni611      Ni  0.74093382  0.85011592  0.03483606     1.34900
C612        C  0.74625610  0.73811468  0.39861863     0.86600
O613        O  0.83716863  0.79517572  0.01059887    -0.77500
O614        O  0.80101120  0.86353115  0.03224662    -0.87700
C615        C  0.84222162  0.66193406  0.49019745     0.86200
O616        O  0.73744268  0.80495900  0.09051949    -0.65900
O617        O  0.69895707  0.63624816  0.46723462    -0.85200
C618        C  0.75375719  0.76168718  0.10099631     0.87000
C619        C  0.83552984  0.84032885  0.02135155     1.08600
H620        H  0.73712074  0.68204433  0.03386465     0.40400
O621        O  0.74741080  0.70060685  0.00421368    -1.07900
O622        O  0.72365383  0.76205778  0.42717117    -0.64500
Ni623      Ni  0.70723645  0.75267589  0.49175730     1.26300
O624        O  0.77627908  0.73766408  0.07244675    -0.64800
O625        O  0.66278601  0.70451668  0.48904596    -0.77100
C626        C  0.65772711  0.83774871  0.00944108     0.86400
O627        O  0.66839166  0.80669074  0.48154481    -0.64200
Ni628      Ni  0.75902973  0.64961989  0.46472584     1.27400
Ni629      Ni  0.79271952  0.74702285  0.00786300     1.26100
H630        H  0.76285263  0.81764693  0.46571289     0.40900
O631        O  0.67967835  0.84415362  0.28990132    -0.79000
O632        O  0.83164896  0.69315101  0.26808169    -0.63700
O633        O  0.75262955  0.79923139  0.24541094    -1.10300
C634        C  0.66450814  0.65951109  0.22827397     1.07900
O635        O  0.82044356  0.65585633  0.20970955    -0.76900
O636        O  0.76259604  0.69487891  0.15910588    -0.64500
Ni637      Ni  0.74100921  0.85022057  0.28489820     1.34900
C638        C  0.74628185  0.73815090  0.14862893     0.86600
O639        O  0.83725367  0.79532499  0.26057981    -0.77500
O640        O  0.80108159  0.86359300  0.28239053    -0.87700
C641        C  0.84231056  0.66208735  0.24018539     0.86200
O642        O  0.73743095  0.80497973  0.34054696    -0.65900
O643        O  0.69902642  0.63630823  0.21737849    -0.85200
C644        C  0.75378259  0.76172654  0.35100633     0.87000
C645        C  0.83560634  0.84043853  0.27141667     1.08600
H646        H  0.73718890  0.68219356  0.28391095     0.40400
O647        O  0.74749013  0.70075061  0.25423466    -1.07900
O648        O  0.72376015  0.76217431  0.17717835    -0.64500
Ni649      Ni  0.70732000  0.75281642  0.24176187     1.26300
O650        O  0.77638550  0.73778367  0.32245408    -0.64800
O651        O  0.66287004  0.70466425  0.23902663    -0.77100
C652        C  0.65781803  0.83790516  0.25942516     0.86400
O653        O  0.66848574  0.80684015  0.23153021    -0.64200
Ni654      Ni  0.75910406  0.64972210  0.21478937     1.27400
Ni655      Ni  0.79280391  0.74716520  0.25786795     1.26100
H656        H  0.76292054  0.81779428  0.21575840     0.40900
C657        C  0.61958714  0.86663667  0.25724403    -0.11400
C658        C  0.58945598  0.89438502  0.25560242    -0.13000
C659        C  0.87496587  0.86793846  0.27010761    -0.11400
C660        C  0.90633255  0.89500393  0.26695020    -0.13000
C661        C  0.91065700  0.60557417  0.24403811    -0.11400
C662        C  0.88053237  0.63333343  0.24237755    -0.13000
C663        C  0.59378024  0.60496458  0.23271229    -0.11400
C664        C  0.62514309  0.63202855  0.22957700    -0.13000
C665        C  0.61950481  0.86650188  0.00724958    -0.11400
C666        C  0.58938009  0.89426120  0.00558979    -0.13000
C667        C  0.90625729  0.89487573  0.01691489    -0.11400
C668        C  0.87489448  0.86781187  0.02004939    -0.13000
C669        C  0.91058364  0.60545386  0.49401834    -0.11400
C670        C  0.88045266  0.63320252  0.49237721    -0.13000
C671        C  0.59370621  0.60483823  0.48267596    -0.11400
C672        C  0.62507284  0.63190378  0.47951852    -0.13000
O673        O  0.95214845  0.94699503  0.54563587    -0.72600
O674        O  0.54047391  0.55094427  0.52863856    -0.72600
O675        O  0.95423966  0.55112240  0.53418879    -0.72600
O676        O  0.53842559  0.94685649  0.54007868    -0.72700
O677        O  0.54571856  0.94859193  0.96541644    -0.72600
O678        O  0.96153230  0.55286019  0.95952940    -0.72600
O679        O  0.54780808  0.55271781  0.95396493    -0.72600
O680        O  0.95948529  0.94877366  0.97096404    -0.72600
Ni681      Ni  0.99606794  0.99892030  0.53981890     1.25400
Ni682      Ni  0.50388925  0.50079509  0.95978629     1.25400
C683        C  0.94110809  0.93135316  0.01099570     0.89600
C684        C  0.55885150  0.56835899  0.98860527     0.89500
C685        C  0.94385328  0.56861463  0.49594492     0.89600
C686        C  0.55610968  0.93110462  0.50366014     0.89700
O687        O  0.54055244  0.55106534  0.77866366    -0.72600
O688        O  0.95222988  0.94712061  0.79566230    -0.72600
O689        O  0.53850577  0.94697846  0.79009939    -0.72600
O690        O  0.95431926  0.55124644  0.78420973    -0.72700
O691        O  0.96161488  0.55298517  0.70954703    -0.72600
O692        O  0.54579788  0.94871542  0.71543680    -0.72600
O693        O  0.95956343  0.94889745  0.72098815    -0.72600
O694        O  0.54789207  0.55284304  0.70398891    -0.72600
Ni695      Ni  0.99614862  0.99904355  0.78984119     1.25400
Ni696      Ni  0.50397097  0.50091951  0.70980682     1.25400
C697        C  0.55893001  0.56848546  0.73863203     0.89600
C698        C  0.94118722  0.93147874  0.76102188     0.89500
C699        C  0.55618430  0.93122280  0.75368057     0.89600
C700        C  0.94393168  0.56873785  0.74596551     0.89700
O701        O  0.67959883  0.84398559  0.53991631    -0.79400
O702        O  0.83155406  0.69299782  0.51809360    -0.63700
O703        O  0.75254841  0.79908772  0.99539053    -1.10300
C704        C  0.66443461  0.65939789  0.97820845     1.07900
O705        O  0.82036288  0.65568636  0.95972291    -0.76900
O706        O  0.76260962  0.69485974  0.90907783    -0.64500
Ni707      Ni  0.74093839  0.85011816  0.53483565     1.34900
C708        C  0.74625643  0.73811206  0.89861895     0.86600
O709        O  0.83717124  0.79517359  0.51059813    -0.77500
O710        O  0.80101621  0.86353064  0.53224587    -0.87700
C711        C  0.84222290  0.66193510  0.99019927     0.86200
O712        O  0.73744600  0.80496133  0.59051916    -0.65900
O713        O  0.69895980  0.63624468  0.96723353    -0.85200
C714        C  0.75375879  0.76168847  0.60099598     0.87000
C715        C  0.83553401  0.84032699  0.52135025     1.08600
H716        H  0.73711963  0.68204653  0.53386450     0.40400
O717        O  0.74741027  0.70060881  0.50421340    -1.07900
O718        O  0.72365272  0.76205380  0.92717152    -0.64500
Ni719      Ni  0.70723535  0.75267202  0.99175761     1.26300
O720        O  0.77627988  0.73766444  0.57244649    -0.64800
O721        O  0.66278644  0.70451092  0.98904637    -0.77100
C722        C  0.65773086  0.83775438  0.50944137     0.86400
O723        O  0.66838891  0.80668504  0.98154480    -0.64200
Ni724      Ni  0.75903204  0.64961825  0.96472595     1.27400
Ni725      Ni  0.79272048  0.74702269  0.50786266     1.26100
H726        H  0.76284939  0.81764535  0.96571342     0.40900
O727        O  0.67967592  0.84415012  0.78990419    -0.79000
O728        O  0.83164969  0.69315278  0.76807974    -0.63700
O729        O  0.75262817  0.79923163  0.74541193    -1.10300
C730        C  0.66450842  0.65951045  0.72827318     1.07900
O731        O  0.82044388  0.65585779  0.70970787    -0.76900
O732        O  0.76259591  0.69487964  0.65910530    -0.64500
Ni733      Ni  0.74100672  0.85021921  0.78490052     1.34900
C734        C  0.74628240  0.73815205  0.64862854     0.86600
O735        O  0.83725223  0.79532690  0.76058010    -0.77500
O736        O  0.80107888  0.86359335  0.78239263    -0.87700
C737        C  0.84231136  0.66208941  0.74018312     0.86200
O738        O  0.73742967  0.80497720  0.84054833    -0.65900
O739        O  0.69902688  0.63630787  0.71737793    -0.85200
C740        C  0.75378231  0.76172447  0.85100683     0.87000
C741        C  0.83560406  0.84044000  0.77141794     1.08600
H742        H  0.73718887  0.68219340  0.78391054     0.40400
O743        O  0.74749013  0.70075093  0.75423391    -1.07900
O744        O  0.72376061  0.76217551  0.67717799    -0.64500
Ni745      Ni  0.70731939  0.75281631  0.74176163     1.26300
O746        O  0.77638565  0.73778282  0.82245394    -0.64800
O747        O  0.66286999  0.70466384  0.73902533    -0.77100
C748        C  0.65781573  0.83790280  0.75942767     0.86400
O749        O  0.66848435  0.80683976  0.73153108    -0.64200
Ni750      Ni  0.75910442  0.64972264  0.71478843     1.27400
Ni751      Ni  0.79280338  0.74716614  0.75786765     1.26100
H752        H  0.76291902  0.81779551  0.71575978     0.40900
C753        C  0.61958429  0.86663371  0.75724787    -0.11400
C754        C  0.58945321  0.89438237  0.75560702    -0.13000
C755        C  0.87496315  0.86794075  0.77010900    -0.11400
C756        C  0.90632998  0.89500594  0.76695158    -0.13000
C757        C  0.91065796  0.60557619  0.74403510    -0.11400
C758        C  0.88053348  0.63333580  0.74237461    -0.13000
C759        C  0.59378067  0.60496312  0.73271258    -0.11400
C760        C  0.62514355  0.63202727  0.72957671    -0.13000
C761        C  0.61950880  0.86650813  0.50725060    -0.11400
C762        C  0.58938394  0.89426713  0.50559060    -0.13000
C763        C  0.90626213  0.89487332  0.51691095    -0.11400
C764        C  0.87489945  0.86780900  0.52004643    -0.13000
C765        C  0.91058500  0.60545536  0.99402270    -0.11400
C766        C  0.88045404  0.63320402  0.99238069    -0.13000
C767        C  0.59370875  0.60483177  0.98267525    -0.11400
C768        C  0.62507553  0.63189712  0.97951755    -0.13000
loop_ 
_geom_bond_atom_site_label_1 
_geom_bond_atom_site_label_2 
_geom_bond_distance 
_geom_bond_site_symmetry_2 
_ccdc_geom_bond_type 
O1           Ni9   1.917       .  S
O1          C107   1.280       .  A
O2         Ni585   1.916   1_445  S
O2          C108   1.280   1_554  A
O3         Ni201   1.918   1_545  S
O3           C13   1.280   1_554  A
O4         Ni393   1.918   1_455  S
O4           C14   1.280       .  A
O5         Ni202   1.918       .  S
O5          C110   1.280       .  A
O6         Ni394   1.918       .  S
O6          C109   1.280       .  A
O7          Ni10   1.917       .  S
O7           C12   1.280       .  A
O8         Ni586   1.916       .  S
O8           C11   1.280       .  A
Ni9         O578   1.916       .  S
Ni9         O195   1.918       .  S
Ni9         O388   1.918       .  S
Ni9        Ni682   2.394   1_554  S
Ni10        O197   1.918   1_545  S
Ni10        O390   1.918   1_455  S
Ni10        O584   1.916   1_445  S
Ni10       Ni681   2.394   1_445  S
C11          O97   1.280       .  A
C11         C187   1.434       .  S
C12          O98   1.280       .  A
C12          C95   1.434       .  S
C13         O102   1.280       .  A
C13         C189   1.435       .  S
C14         O101   1.280   1_554  A
C14          C90   1.435       .  S
O15        Ni599   1.916   1_445  S
O15          C25   1.280       .  A
O16         Ni23   1.917       .  S
O16          C26   1.280       .  A
O17        Ni407   1.918   1_455  S
O17          C27   1.280       .  A
O18        Ni215   1.918   1_545  S
O18          C28   1.280       .  A
O19        Ni408   1.918       .  S
O19          C28   1.280       .  A
O20        Ni216   1.918       .  S
O20          C27   1.280       .  A
O21        Ni600   1.916       .  S
O21          C26   1.280       .  A
O22         Ni24   1.917       .  S
O22          C25   1.280       .  A
Ni23        O591   1.916       .  S
Ni23        O401   1.918       .  S
Ni23        O210   1.918       .  S
Ni23       Ni600   2.394       .  S
Ni24        O403   1.918   1_455  S
Ni24        O212   1.918   1_545  S
Ni24        O597   1.916   1_445  S
Ni24       Ni599   2.394   1_445  S
C25          C87   1.434       .  S
C26          C84   1.434       .  S
C27          C82   1.435       .  S
C28          C85   1.435       .  S
O29         Ni35   1.933       .  S
O29          C50   1.270       .  A
O30         Ni53   1.904       .  S
O30         C135   1.265   1_554  A
O31          H54   0.967       .  S
O31         Ni47   1.910       .  S
O31        Ni131   1.917       .  S
O31        Ni149   1.910       .  S
C32          O49   1.272       .  A
C32          O41   1.274       .  A
C32          C96   1.434       .  S
O33         Ni52   1.933       .  S
O33          C39   1.270       .  A
O34         Ni52   1.908       .  S
O34          C36   1.269       .  A
Ni35         O38   1.926       .  S
Ni35         O40   1.908       .  S
Ni35        O127   1.917   1_554  S
C36          O46   1.271       .  A
C36          C68   1.470       .  S
O37         Ni53   1.912       .  S
O37          C43   1.272       .  A
O38          C43   1.274       .  A
C39         O126   1.265       .  A
C39          C94   1.435       .  S
O40          C42   1.269       .  A
O41         Ni52   1.926       .  S
C42          O48   1.271       .  A
C42          C62   1.470       .  S
C43          C92   1.434       .  S
H44          O45   0.966       .  S
O45         Ni53   1.910       .  S
O45        Ni143   1.910   1_554  S
O45        Ni148   1.917   1_554  S
O46         Ni47   1.925       .  S
Ni47         O51   1.904       .  S
Ni47         O49   1.912       .  S
Ni47        O141   1.910       .  S
O48         Ni53   1.925       .  S
C50         O147   1.265   1_554  A
C50          C89   1.435       .  S
O51         C146   1.265       .  A
Ni52        O141   1.917       .  S
Ni53        O127   1.910   1_554  S
O55         Ni61   1.933       .  S
O55          C76   1.270       .  A
O56         Ni79   1.904       .  S
O56          C65   1.265       .  A
O57          H80   0.966       .  S
O57         Ni61   1.917       .  S
O57         Ni79   1.910       .  S
O57         Ni73   1.910       .  S
C58          O75   1.272       .  A
C58          O67   1.274       .  A
C58          C88   1.434       .  S
O59         Ni78   1.933       .  S
O59          C65   1.270       .  A
O60         Ni78   1.908       .  S
O60          C62   1.269       .  A
Ni61         O64   1.926       .  S
Ni61         O66   1.908       .  S
C62          O72   1.271       .  A
O63         Ni79   1.912       .  S
O63          C69   1.272       .  A
O64          C69   1.274       .  A
C65          C86   1.435       .  S
O66          C68   1.269       .  A
O67         Ni78   1.926       .  S
C68          O74   1.271       .  A
C69          C83   1.434       .  S
H70          O71   0.967       .  S
O71         Ni79   1.910       .  S
O71         Ni73   1.910       .  S
O71         Ni78   1.917       .  S
O72         Ni73   1.925       .  S
Ni73         O77   1.904       .  S
Ni73         O75   1.912       .  S
O74         Ni79   1.925       .  S
C76          O77   1.265       .  A
C76          C81   1.435       .  S
C81          C82   1.206       .  T
C83          C84   1.205       .  T
C85          C86   1.206       .  T
C87          C88   1.205       .  T
C89          C90   1.206       .  T
C91         C107   1.434       .  S
C91          C92   1.205       .  T
C93         C109   1.435       .  S
C93          C94   1.206       .  T
C95          C96   1.205       .  T
O97        Ni105   1.917       .  S
O98        Ni681   1.916   1_445  S
O99        Ni297   1.918   1_545  S
O99         C109   1.280       .  A
O100       Ni489   1.918   1_455  S
O100        C110   1.280       .  A
O101       Ni298   1.918       .  S
O102       Ni490   1.918       .  S
O103       Ni106   1.917       .  S
O103        C108   1.280       .  A
O104       Ni682   1.916       .  S
O104        C107   1.280   1_556  A
Ni105       O674   1.916       .  S
Ni105       O291   1.918       .  S
Ni105       O484   1.918       .  S
Ni105      Ni586   2.394       .  S
Ni106       O293   1.918   1_545  S
Ni106       O486   1.918   1_455  S
Ni106       O680   1.916   1_445  S
Ni106      Ni585   2.394   1_446  S
C108        C191   1.434       .  S
C110        C186   1.435       .  S
O111       Ni695   1.916   1_445  S
O111        C121   1.280       .  A
O112       Ni119   1.917       .  S
O112        C122   1.280       .  A
O113       Ni503   1.918   1_455  S
O113        C123   1.280       .  A
O114       Ni311   1.918   1_545  S
O114        C124   1.280       .  A
O115       Ni504   1.918       .  S
O115        C124   1.280       .  A
O116       Ni312   1.918       .  S
O116        C123   1.280       .  A
O117       Ni696   1.916       .  S
O117        C122   1.280       .  A
O118       Ni120   1.917       .  S
O118        C121   1.280       .  A
Ni119       O687   1.916       .  S
Ni119       O497   1.918       .  S
Ni119       O306   1.918       .  S
Ni119      Ni696   2.394       .  S
Ni120       O499   1.918   1_455  S
Ni120       O308   1.918   1_545  S
Ni120       O693   1.916   1_445  S
Ni120      Ni695   2.394   1_445  S
C121        C183   1.434       .  S
C122        C180   1.434       .  S
C123        C178   1.435       .  S
C124        C181   1.435       .  S
O125       Ni131   1.933       .  S
O125        C146   1.270       .  A
O126       Ni149   1.904       .  S
O127        H150   0.967       .  S
O127       Ni143   1.910       .  S
C128        O145   1.272       .  A
C128        O137   1.274       .  A
C128        C192   1.434       .  S
O129       Ni148   1.933       .  S
O129        C135   1.270       .  A
O130       Ni148   1.908       .  S
O130        C132   1.269       .  A
Ni131       O134   1.926       .  S
Ni131       O136   1.908       .  S
C132        O142   1.271       .  A
C132        C164   1.470       .  S
O133       Ni149   1.912       .  S
O133        C139   1.272       .  A
O134        C139   1.274       .  A
C135        C190   1.435       .  S
O136        C138   1.269       .  A
O137       Ni148   1.926       .  S
C138        O144   1.271       .  A
C138        C158   1.470       .  S
C139        C188   1.434       .  S
H140        O141   0.966       .  S
O141       Ni149   1.910       .  S
O142       Ni143   1.925       .  S
Ni143       O147   1.904       .  S
Ni143       O145   1.912       .  S
O144       Ni149   1.925       .  S
C146        C185   1.435       .  S
O151       Ni157   1.933       .  S
O151        C172   1.270       .  A
O152       Ni175   1.904       .  S
O152        C161   1.265       .  A
O153        H176   0.966       .  S
O153       Ni157   1.917       .  S
O153       Ni175   1.910       .  S
O153       Ni169   1.910       .  S
C154        O171   1.272       .  A
C154        O163   1.274       .  A
C154        C184   1.434       .  S
O155       Ni174   1.933       .  S
O155        C161   1.270       .  A
O156       Ni174   1.908       .  S
O156        C158   1.269       .  A
Ni157       O160   1.926       .  S
Ni157       O162   1.908       .  S
C158        O168   1.271       .  A
O159       Ni175   1.912       .  S
O159        C165   1.272       .  A
O160        C165   1.274       .  A
C161        C182   1.435       .  S
O162        C164   1.269       .  A
O163       Ni174   1.926       .  S
C164        O170   1.271       .  A
C165        C179   1.434       .  S
H166        O167   0.967       .  S
O167       Ni175   1.910       .  S
O167       Ni169   1.910       .  S
O167       Ni174   1.917       .  S
O168       Ni169   1.925       .  S
Ni169       O173   1.904       .  S
Ni169       O171   1.912       .  S
O170       Ni175   1.925       .  S
C172        O173   1.265       .  A
C172        C177   1.435       .  S
C177        C178   1.206       .  T
C179        C180   1.205       .  T
C181        C182   1.206       .  T
C183        C184   1.205       .  T
C185        C186   1.206       .  T
C187        C188   1.205       .  T
C189        C190   1.206       .  T
C191        C192   1.205       .  T
O193       Ni201   1.917       .  S
O193        C299   1.280       .  A
O194       Ni393   1.916   1_455  S
O194        C300   1.280   1_554  A
O195        C205   1.280   1_554  A
O196       Ni585   1.918   1_455  S
O196        C206   1.280       .  A
O197        C302   1.280       .  A
O198       Ni586   1.918       .  S
O198        C301   1.280       .  A
O199       Ni202   1.917       .  S
O199        C204   1.280       .  A
O200       Ni394   1.916   1_565  S
O200        C203   1.280       .  A
Ni201       O386   1.916   1_565  S
Ni201       O580   1.918       .  S
Ni201      Ni490   2.394   1_564  S
Ni202       O582   1.918   1_455  S
Ni202       O392   1.916   1_455  S
Ni202      Ni489   2.394   1_455  S
C203        O289   1.280       .  A
C203        C379   1.434       .  S
C204        O290   1.280       .  A
C204        C287   1.434       .  S
C205        O294   1.280       .  A
C205        C381   1.435       .  S
C206        O293   1.280   1_554  A
C206        C282   1.435       .  S
O207       Ni407   1.916   1_455  S
O207        C217   1.280       .  A
O208       Ni215   1.917       .  S
O208        C218   1.280       .  A
O209       Ni599   1.918   1_455  S
O209        C219   1.280       .  A
O210        C220   1.280       .  A
O211       Ni600   1.918       .  S
O211        C220   1.280       .  A
O212        C219   1.280       .  A
O213       Ni408   1.916   1_565  S
O213        C218   1.280       .  A
O214       Ni216   1.917       .  S
O214        C217   1.280       .  A
Ni215       O399   1.916   1_565  S
Ni215       O593   1.918       .  S
Ni215      Ni408   2.394   1_565  S
Ni216       O595   1.918   1_455  S
Ni216       O405   1.916   1_455  S
Ni216      Ni407   2.394   1_455  S
C217        C279   1.434       .  S
C218        C276   1.434       .  S
C219        C274   1.435       .  S
C220        C277   1.435       .  S
O221       Ni227   1.933       .  S
O221        C242   1.270       .  A
O222       Ni245   1.904       .  S
O222        C327   1.265   1_554  A
O223        H246   0.967       .  S
O223       Ni323   1.917       .  S
O223       Ni341   1.910       .  S
O223       Ni239   1.910       .  S
C224        O241   1.272       .  A
C224        O233   1.274       .  A
C224        C288   1.434       .  S
O225       Ni244   1.933       .  S
O225        C231   1.270       .  A
O226       Ni244   1.908       .  S
O226        C228   1.269       .  A
Ni227       O230   1.926       .  S
Ni227       O232   1.908       .  S
Ni227       O319   1.917   1_554  S
C228        O238   1.271       .  A
C228        C260   1.470       .  S
O229       Ni245   1.912       .  S
O229        C235   1.272       .  A
O230        C235   1.274       .  A
C231        O318   1.265       .  A
C231        C286   1.435       .  S
O232        C234   1.269       .  A
O233       Ni244   1.926       .  S
C234        O240   1.271       .  A
C234        C254   1.470       .  S
C235        C284   1.434       .  S
H236        O237   0.966       .  S
O237       Ni245   1.910       .  S
O237       Ni335   1.910   1_554  S
O237       Ni340   1.917   1_554  S
O238       Ni239   1.925       .  S
Ni239       O243   1.904       .  S
Ni239       O241   1.912       .  S
Ni239       O333   1.910       .  S
O240       Ni245   1.925       .  S
C242        O339   1.265   1_554  A
C242        C281   1.435       .  S
O243        C338   1.265       .  A
Ni244       O333   1.917       .  S
Ni245       O319   1.910   1_554  S
O247       Ni253   1.933       .  S
O247        C268   1.270       .  A
O248       Ni271   1.904       .  S
O248        C257   1.265       .  A
O249        H272   0.966       .  S
O249       Ni253   1.917       .  S
O249       Ni271   1.910       .  S
O249       Ni265   1.910       .  S
C250        O267   1.272       .  A
C250        O259   1.274       .  A
C250        C280   1.434       .  S
O251       Ni270   1.933       .  S
O251        C257   1.270       .  A
O252       Ni270   1.908       .  S
O252        C254   1.269       .  A
Ni253       O256   1.926       .  S
Ni253       O258   1.908       .  S
C254        O264   1.271       .  A
O255       Ni271   1.912       .  S
O255        C261   1.272       .  A
O256        C261   1.274       .  A
C257        C278   1.435       .  S
O258        C260   1.269       .  A
O259       Ni270   1.926       .  S
C260        O266   1.271       .  A
C261        C275   1.434       .  S
H262        O263   0.967       .  S
O263       Ni271   1.910       .  S
O263       Ni265   1.910       .  S
O263       Ni270   1.917       .  S
O264       Ni265   1.925       .  S
Ni265       O269   1.904       .  S
Ni265       O267   1.912       .  S
O266       Ni271   1.925       .  S
C268        O269   1.265       .  A
C268        C273   1.435       .  S
C273        C274   1.206       .  T
C275        C276   1.205       .  T
C277        C278   1.206       .  T
C279        C280   1.205       .  T
C281        C282   1.206       .  T
C283        C299   1.434       .  S
C283        C284   1.205       .  T
C285        C301   1.435       .  S
C285        C286   1.206       .  T
C287        C288   1.205       .  T
O289       Ni297   1.917       .  S
O290       Ni489   1.916   1_455  S
O291        C301   1.280       .  A
O292       Ni681   1.918   1_455  S
O292        C302   1.280       .  A
O294       Ni682   1.918       .  S
O295       Ni298   1.917       .  S
O295        C300   1.280       .  A
O296       Ni490   1.916   1_565  S
O296        C299   1.280   1_556  A
Ni297       O482   1.916   1_565  S
Ni297       O676   1.918       .  S
Ni297      Ni394   2.394   1_565  S
Ni298       O678   1.918   1_455  S
Ni298       O488   1.916   1_455  S
Ni298      Ni393   2.394   1_456  S
C300        C383   1.434       .  S
C302        C378   1.435       .  S
O303       Ni503   1.916   1_455  S
O303        C313   1.280       .  A
O304       Ni311   1.917       .  S
O304        C314   1.280       .  A
O305       Ni695   1.918   1_455  S
O305        C315   1.280       .  A
O306        C316   1.280       .  A
O307       Ni696   1.918       .  S
O307        C316   1.280       .  A
O308        C315   1.280       .  A
O309       Ni504   1.916   1_565  S
O309        C314   1.280       .  A
O310       Ni312   1.917       .  S
O310        C313   1.280       .  A
Ni311       O495   1.916   1_565  S
Ni311       O689   1.918       .  S
Ni311      Ni504   2.394   1_565  S
Ni312       O691   1.918   1_455  S
Ni312       O501   1.916   1_455  S
Ni312      Ni503   2.394   1_455  S
C313        C375   1.434       .  S
C314        C372   1.434       .  S
C315        C370   1.435       .  S
C316        C373   1.435       .  S
O317       Ni323   1.933       .  S
O317        C338   1.270       .  A
O318       Ni341   1.904       .  S
O319        H342   0.967       .  S
O319       Ni335   1.910       .  S
C320        O337   1.272       .  A
C320        O329   1.274       .  A
C320        C384   1.434       .  S
O321       Ni340   1.933       .  S
O321        C327   1.270       .  A
O322       Ni340   1.908       .  S
O322        C324   1.269       .  A
Ni323       O326   1.926       .  S
Ni323       O328   1.908       .  S
C324        O334   1.271       .  A
C324        C356   1.470       .  S
O325       Ni341   1.912       .  S
O325        C331   1.272       .  A
O326        C331   1.274       .  A
C327        C382   1.435       .  S
O328        C330   1.269       .  A
O329       Ni340   1.926       .  S
C330        O336   1.271       .  A
C330        C350   1.470       .  S
C331        C380   1.434       .  S
H332        O333   0.966       .  S
O333       Ni341   1.910       .  S
O334       Ni335   1.925       .  S
Ni335       O339   1.904       .  S
Ni335       O337   1.912       .  S
O336       Ni341   1.925       .  S
C338        C377   1.435       .  S
O343       Ni349   1.933       .  S
O343        C364   1.270       .  A
O344       Ni367   1.904       .  S
O344        C353   1.265       .  A
O345        H368   0.966       .  S
O345       Ni349   1.917       .  S
O345       Ni367   1.910       .  S
O345       Ni361   1.910       .  S
C346        O363   1.272       .  A
C346        O355   1.274       .  A
C346        C376   1.434       .  S
O347       Ni366   1.933       .  S
O347        C353   1.270       .  A
O348       Ni366   1.908       .  S
O348        C350   1.269       .  A
Ni349       O352   1.926       .  S
Ni349       O354   1.908       .  S
C350        O360   1.271       .  A
O351       Ni367   1.912       .  S
O351        C357   1.272       .  A
O352        C357   1.274       .  A
C353        C374   1.435       .  S
O354        C356   1.269       .  A
O355       Ni366   1.926       .  S
C356        O362   1.271       .  A
C357        C371   1.434       .  S
H358        O359   0.967       .  S
O359       Ni367   1.910       .  S
O359       Ni361   1.910       .  S
O359       Ni366   1.917       .  S
O360       Ni361   1.925       .  S
Ni361       O365   1.904       .  S
Ni361       O363   1.912       .  S
O362       Ni367   1.925       .  S
C364        O365   1.265       .  A
C364        C369   1.435       .  S
C369        C370   1.206       .  T
C371        C372   1.205       .  T
C373        C374   1.206       .  T
C375        C376   1.205       .  T
C377        C378   1.206       .  T
C379        C380   1.205       .  T
C381        C382   1.206       .  T
C383        C384   1.205       .  T
O385       Ni393   1.917       .  S
O385        C491   1.280       .  A
O386        C492   1.280   1_554  A
O387       Ni585   1.918   1_545  S
O387        C397   1.280   1_554  A
O388        C398   1.280       .  A
O389       Ni586   1.918       .  S
O389        C494   1.280       .  A
O390        C493   1.280       .  A
O391       Ni394   1.917       .  S
O391        C396   1.280       .  A
O392        C395   1.280       .  A
Ni393       O579   1.918       .  S
Ni394       O581   1.918   1_545  S
C395        O481   1.280       .  A
C395        C571   1.434       .  S
C396        O482   1.280       .  A
C396        C479   1.434       .  S
C397        O486   1.280       .  A
C397        C573   1.435       .  S
C398        O485   1.280   1_554  A
C398        C474   1.435       .  S
O399        C409   1.280       .  A
O400       Ni407   1.917       .  S
O400        C410   1.280       .  A
O401        C411   1.280       .  A
O402       Ni599   1.918   1_545  S
O402        C412   1.280       .  A
O403        C412   1.280       .  A
O404       Ni600   1.918       .  S
O404        C411   1.280       .  A
O405        C410   1.280       .  A
O406       Ni408   1.917       .  S
O406        C409   1.280       .  A
Ni407       O594   1.918       .  S
Ni408       O596   1.918   1_545  S
C409        C471   1.434       .  S
C410        C468   1.434       .  S
C411        C466   1.435       .  S
C412        C469   1.435       .  S
O413       Ni419   1.933       .  S
O413        C434   1.270       .  A
O414       Ni437   1.904       .  S
O414        C519   1.265   1_554  A
O415        H438   0.967       .  S
O415       Ni515   1.917       .  S
O415       Ni533   1.910       .  S
O415       Ni431   1.910       .  S
C416        O433   1.272       .  A
C416        O425   1.274       .  A
C416        C480   1.434       .  S
O417       Ni436   1.933       .  S
O417        C423   1.270       .  A
O418       Ni436   1.908       .  S
O418        C420   1.269       .  A
Ni419       O422   1.926       .  S
Ni419       O424   1.908       .  S
Ni419       O511   1.917   1_554  S
C420        O430   1.271       .  A
C420        C452   1.470       .  S
O421       Ni437   1.912       .  S
O421        C427   1.272       .  A
O422        C427   1.274       .  A
C423        O510   1.265       .  A
C423        C478   1.435       .  S
O424        C426   1.269       .  A
O425       Ni436   1.926       .  S
C426        O432   1.271       .  A
C426        C446   1.470       .  S
C427        C476   1.434       .  S
H428        O429   0.966       .  S
O429       Ni437   1.910       .  S
O429       Ni527   1.910   1_554  S
O429       Ni532   1.917   1_554  S
O430       Ni431   1.925       .  S
Ni431       O435   1.904       .  S
Ni431       O433   1.912       .  S
Ni431       O525   1.910       .  S
O432       Ni437   1.925       .  S
C434        O531   1.265   1_554  A
C434        C473   1.435       .  S
O435        C530   1.265       .  A
Ni436       O525   1.917       .  S
Ni437       O511   1.910   1_554  S
O439       Ni445   1.933       .  S
O439        C460   1.270       .  A
O440       Ni463   1.904       .  S
O440        C449   1.265       .  A
O441        H464   0.966       .  S
O441       Ni445   1.917       .  S
O441       Ni463   1.910       .  S
O441       Ni457   1.910       .  S
C442        O459   1.272       .  A
C442        O451   1.274       .  A
C442        C472   1.434       .  S
O443       Ni462   1.933       .  S
O443        C449   1.270       .  A
O444       Ni462   1.908       .  S
O444        C446   1.269       .  A
Ni445       O448   1.926       .  S
Ni445       O450   1.908       .  S
C446        O456   1.271       .  A
O447       Ni463   1.912       .  S
O447        C453   1.272       .  A
O448        C453   1.274       .  A
C449        C470   1.435       .  S
O450        C452   1.269       .  A
O451       Ni462   1.926       .  S
C452        O458   1.271       .  A
C453        C467   1.434       .  S
H454        O455   0.967       .  S
O455       Ni463   1.910       .  S
O455       Ni457   1.910       .  S
O455       Ni462   1.917       .  S
O456       Ni457   1.925       .  S
Ni457       O461   1.904       .  S
Ni457       O459   1.912       .  S
O458       Ni463   1.925       .  S
C460        O461   1.265       .  A
C460        C465   1.435       .  S
C465        C466   1.206       .  T
C467        C468   1.205       .  T
C469        C470   1.206       .  T
C471        C472   1.205       .  T
C473        C474   1.206       .  T
C475        C491   1.434       .  S
C475        C476   1.205       .  T
C477        C493   1.435       .  S
C477        C478   1.206       .  T
C479        C480   1.205       .  T
O481       Ni489   1.917       .  S
O483       Ni681   1.918   1_545  S
O483        C493   1.280       .  A
O484        C494   1.280       .  A
O485       Ni682   1.918       .  S
O487       Ni490   1.917       .  S
O487        C492   1.280       .  A
O488        C491   1.280   1_556  A
Ni489       O675   1.918       .  S
Ni490       O677   1.918   1_545  S
C492        C575   1.434       .  S
C494        C570   1.435       .  S
O495        C505   1.280       .  A
O496       Ni503   1.917       .  S
O496        C506   1.280       .  A
O497        C507   1.280       .  A
O498       Ni695   1.918   1_545  S
O498        C508   1.280       .  A
O499        C508   1.280       .  A
O500       Ni696   1.918       .  S
O500        C507   1.280       .  A
O501        C506   1.280       .  A
O502       Ni504   1.917       .  S
O502        C505   1.280       .  A
Ni503       O690   1.918       .  S
Ni504       O692   1.918   1_545  S
C505        C567   1.434       .  S
C506        C564   1.434       .  S
C507        C562   1.435       .  S
C508        C565   1.435       .  S
O509       Ni515   1.933       .  S
O509        C530   1.270       .  A
O510       Ni533   1.904       .  S
O511        H534   0.967       .  S
O511       Ni527   1.910       .  S
C512        O529   1.272       .  A
C512        O521   1.274       .  A
C512        C576   1.434       .  S
O513       Ni532   1.933       .  S
O513        C519   1.270       .  A
O514       Ni532   1.908       .  S
O514        C516   1.269       .  A
Ni515       O518   1.926       .  S
Ni515       O520   1.908       .  S
C516        O526   1.271       .  A
C516        C548   1.470       .  S
O517       Ni533   1.912       .  S
O517        C523   1.272       .  A
O518        C523   1.274       .  A
C519        C574   1.435       .  S
O520        C522   1.269       .  A
O521       Ni532   1.926       .  S
C522        O528   1.271       .  A
C522        C542   1.470       .  S
C523        C572   1.434       .  S
H524        O525   0.966       .  S
O525       Ni533   1.910       .  S
O526       Ni527   1.925       .  S
Ni527       O531   1.904       .  S
Ni527       O529   1.912       .  S
O528       Ni533   1.925       .  S
C530        C569   1.435       .  S
O535       Ni541   1.933       .  S
O535        C556   1.270       .  A
O536       Ni559   1.904       .  S
O536        C545   1.265       .  A
O537        H560   0.966       .  S
O537       Ni541   1.917       .  S
O537       Ni559   1.910       .  S
O537       Ni553   1.910       .  S
C538        O555   1.272       .  A
C538        O547   1.274       .  A
C538        C568   1.434       .  S
O539       Ni558   1.933       .  S
O539        C545   1.270       .  A
O540       Ni558   1.908       .  S
O540        C542   1.269       .  A
Ni541       O544   1.926       .  S
Ni541       O546   1.908       .  S
C542        O552   1.271       .  A
O543       Ni559   1.912       .  S
O543        C549   1.272       .  A
O544        C549   1.274       .  A
C545        C566   1.435       .  S
O546        C548   1.269       .  A
O547       Ni558   1.926       .  S
C548        O554   1.271       .  A
C549        C563   1.434       .  S
H550        O551   0.967       .  S
O551       Ni559   1.910       .  S
O551       Ni553   1.910       .  S
O551       Ni558   1.917       .  S
O552       Ni553   1.925       .  S
Ni553       O557   1.904       .  S
Ni553       O555   1.912       .  S
O554       Ni559   1.925       .  S
C556        O557   1.265       .  A
C556        C561   1.435       .  S
C561        C562   1.206       .  T
C563        C564   1.205       .  T
C565        C566   1.206       .  T
C567        C568   1.205       .  T
C569        C570   1.206       .  T
C571        C572   1.205       .  T
C573        C574   1.206       .  T
C575        C576   1.205       .  T
O577       Ni585   1.917       .  S
O577        C683   1.280       .  A
O578        C684   1.280   1_554  A
O579        C589   1.280   1_554  A
O580        C590   1.280       .  A
O581        C686   1.280       .  A
O582        C685   1.280       .  A
O583       Ni586   1.917       .  S
O583        C588   1.280       .  A
O584        C587   1.280       .  A
C587        O673   1.280       .  A
C587        C763   1.434       .  S
C588        O674   1.280       .  A
C588        C671   1.434       .  S
C589        O678   1.280       .  A
C589        C765   1.435       .  S
C590        O677   1.280   1_554  A
C590        C666   1.435       .  S
O591        C601   1.280       .  A
O592       Ni599   1.917       .  S
O592        C602   1.280       .  A
O593        C603   1.280       .  A
O594        C604   1.280       .  A
O595        C604   1.280       .  A
O596        C603   1.280       .  A
O597        C602   1.280       .  A
O598       Ni600   1.917       .  S
O598        C601   1.280       .  A
C601        C663   1.434       .  S
C602        C660   1.434       .  S
C603        C658   1.435       .  S
C604        C661   1.435       .  S
O605       Ni611   1.933       .  S
O605        C626   1.270       .  A
O606       Ni629   1.904       .  S
O606        C711   1.265   1_554  A
O607        H630   0.967       .  S
O607       Ni707   1.917       .  S
O607       Ni725   1.910       .  S
O607       Ni623   1.910       .  S
C608        O625   1.272       .  A
C608        O617   1.274       .  A
C608        C672   1.434       .  S
O609       Ni628   1.933       .  S
O609        C615   1.270       .  A
O610       Ni628   1.908       .  S
O610        C612   1.269       .  A
Ni611       O614   1.926       .  S
Ni611       O616   1.908       .  S
Ni611       O703   1.917   1_554  S
C612        O622   1.271       .  A
C612        C644   1.470       .  S
O613       Ni629   1.912       .  S
O613        C619   1.272       .  A
O614        C619   1.274       .  A
C615        O702   1.265       .  A
C615        C670   1.435       .  S
O616        C618   1.269       .  A
O617       Ni628   1.926       .  S
C618        O624   1.271       .  A
C618        C638   1.470       .  S
C619        C668   1.434       .  S
H620        O621   0.966       .  S
O621       Ni629   1.910       .  S
O621       Ni719   1.910   1_554  S
O621       Ni724   1.917   1_554  S
O622       Ni623   1.925       .  S
Ni623       O627   1.904       .  S
Ni623       O625   1.912       .  S
Ni623       O717   1.910       .  S
O624       Ni629   1.925       .  S
C626        O723   1.265   1_554  A
C626        C665   1.435       .  S
O627        C722   1.265       .  A
Ni628       O717   1.917       .  S
Ni629       O703   1.910   1_554  S
O631       Ni637   1.933       .  S
O631        C652   1.270       .  A
O632       Ni655   1.904       .  S
O632        C641   1.265       .  A
O633        H656   0.966       .  S
O633       Ni637   1.917       .  S
O633       Ni655   1.910       .  S
O633       Ni649   1.910       .  S
C634        O651   1.272       .  A
C634        O643   1.274       .  A
C634        C664   1.434       .  S
O635       Ni654   1.933       .  S
O635        C641   1.270       .  A
O636       Ni654   1.908       .  S
O636        C638   1.269       .  A
Ni637       O640   1.926       .  S
Ni637       O642   1.908       .  S
C638        O648   1.271       .  A
O639       Ni655   1.912       .  S
O639        C645   1.272       .  A
O640        C645   1.274       .  A
C641        C662   1.435       .  S
O642        C644   1.269       .  A
O643       Ni654   1.926       .  S
C644        O650   1.271       .  A
C645        C659   1.434       .  S
H646        O647   0.967       .  S
O647       Ni655   1.910       .  S
O647       Ni649   1.910       .  S
O647       Ni654   1.917       .  S
O648       Ni649   1.925       .  S
Ni649       O653   1.904       .  S
Ni649       O651   1.912       .  S
O650       Ni655   1.925       .  S
C652        O653   1.265       .  A
C652        C657   1.435       .  S
C657        C658   1.206       .  T
C659        C660   1.205       .  T
C661        C662   1.206       .  T
C663        C664   1.205       .  T
C665        C666   1.206       .  T
C667        C683   1.434       .  S
C667        C668   1.205       .  T
C669        C685   1.435       .  S
C669        C670   1.206       .  T
C671        C672   1.205       .  T
O673       Ni681   1.917       .  S
O675        C685   1.280       .  A
O676        C686   1.280       .  A
O679       Ni682   1.917       .  S
O679        C684   1.280       .  A
O680        C683   1.280   1_556  A
C684        C767   1.434       .  S
C686        C762   1.435       .  S
O687        C697   1.280       .  A
O688       Ni695   1.917       .  S
O688        C698   1.280       .  A
O689        C699   1.280       .  A
O690        C700   1.280       .  A
O691        C700   1.280       .  A
O692        C699   1.280       .  A
O693        C698   1.280       .  A
O694       Ni696   1.917       .  S
O694        C697   1.280       .  A
C697        C759   1.434       .  S
C698        C756   1.434       .  S
C699        C754   1.435       .  S
C700        C757   1.435       .  S
O701       Ni707   1.933       .  S
O701        C722   1.270       .  A
O702       Ni725   1.904       .  S
O703        H726   0.967       .  S
O703       Ni719   1.910       .  S
C704        O721   1.272       .  A
C704        O713   1.274       .  A
C704        C768   1.434       .  S
O705       Ni724   1.933       .  S
O705        C711   1.270       .  A
O706       Ni724   1.908       .  S
O706        C708   1.269       .  A
Ni707       O710   1.926       .  S
Ni707       O712   1.908       .  S
C708        O718   1.271       .  A
C708        C740   1.470       .  S
O709       Ni725   1.912       .  S
O709        C715   1.272       .  A
O710        C715   1.274       .  A
C711        C766   1.435       .  S
O712        C714   1.269       .  A
O713       Ni724   1.926       .  S
C714        O720   1.271       .  A
C714        C734   1.470       .  S
C715        C764   1.434       .  S
H716        O717   0.966       .  S
O717       Ni725   1.910       .  S
O718       Ni719   1.925       .  S
Ni719       O723   1.904       .  S
Ni719       O721   1.912       .  S
O720       Ni725   1.925       .  S
C722        C761   1.435       .  S
O727       Ni733   1.933       .  S
O727        C748   1.270       .  A
O728       Ni751   1.904       .  S
O728        C737   1.265       .  A
O729        H752   0.966       .  S
O729       Ni733   1.917       .  S
O729       Ni751   1.910       .  S
O729       Ni745   1.910       .  S
C730        O747   1.272       .  A
C730        O739   1.274       .  A
C730        C760   1.434       .  S
O731       Ni750   1.933       .  S
O731        C737   1.270       .  A
O732       Ni750   1.908       .  S
O732        C734   1.269       .  A
Ni733       O736   1.926       .  S
Ni733       O738   1.908       .  S
C734        O744   1.271       .  A
O735       Ni751   1.912       .  S
O735        C741   1.272       .  A
O736        C741   1.274       .  A
C737        C758   1.435       .  S
O738        C740   1.269       .  A
O739       Ni750   1.926       .  S
C740        O746   1.271       .  A
C741        C755   1.434       .  S
H742        O743   0.967       .  S
O743       Ni751   1.910       .  S
O743       Ni745   1.910       .  S
O743       Ni750   1.917       .  S
O744       Ni745   1.925       .  S
Ni745       O749   1.904       .  S
Ni745       O747   1.912       .  S
O746       Ni751   1.925       .  S
C748        O749   1.265       .  A
C748        C753   1.435       .  S
C753        C754   1.206       .  T
C755        C756   1.205       .  T
C757        C758   1.206       .  T
C759        C760   1.205       .  T
C761        C762   1.206       .  T
C763        C764   1.205       .  T
C765        C766   1.206       .  T
C767        C768   1.205       .  T
