geometry optimzed in LAMMPS
_audit_creation_date              2020-11-30 
_audit_creation_method            'lammps2cif' 
_symmetry_space_group_name_H-M    'P1' 
_symmetry_Int_Tables_number       1 
_symmetry_cell_setting            triclinic 
loop_ 
_symmetry_equiv_pos_as_xyz 
  x,y,z 
_cell_length_a                    28.97669805 
_cell_length_b                    55.54093066990576 
_cell_length_c                    28.425947440842577 
_cell_angle_alpha                 90.70254244017617 
_cell_angle_beta                  89.97148548984121 
_cell_angle_gamma                 120.95985417417984 
loop_ 
_atom_site_label 
_atom_site_type_symbol 
_atom_site_fract_x 
_atom_site_fract_y 
_atom_site_fract_z 
_atom_site_charge 
C1          C  0.87265277  0.31219943  0.99854610     0.86200
C2          C  0.85174067  0.29207933  0.04051198    -0.54000
C3          C  0.79738727  0.27527469  0.04195557     0.09100
C4          C  0.76793576  0.28097525  0.00296455     0.20100
C5          C  0.84724476  0.29465154  0.45762017    -0.54800
C6          C  0.79280886  0.27672963  0.45820813     0.09200
C7          C  0.84440524  0.32911653  0.00414119    -0.54300
C8          C  0.78729784  0.31227164  0.50963868     0.09800
H9          H  0.87774132  0.29083540  0.06659457     0.14300
H10         H  0.72435681  0.26641230  0.00601162     0.00100
H11         H  0.87244808  0.29649031  0.42799791     0.14600
H12         H  0.86615194  0.35166510  0.00432092     0.14400
C13         C  0.11009086  0.37854961  0.00139403     0.86200
C14         C  0.13649722  0.37126176  0.46407052    -0.54000
C15         C  0.19075465  0.38279133  0.46922195     0.09100
C16         C  0.21449381  0.40217430  0.01054010     0.20100
C17         C  0.12831913  0.37188608  0.04780142    -0.54800
C18         C  0.18249864  0.38263123  0.05170116     0.09200
C19         C  0.13998960  0.41066122  0.00301272    -0.54300
C20         C  0.19440709  0.42315035  0.00756552     0.09800
H21         H  0.11410085  0.35743610  0.43467482     0.14300
H22         H  0.25866592  0.41322452  0.01371458     0.00100
H23         H  0.10026532  0.35937277  0.07488784     0.14600
H24         H  0.12042328  0.42279896  0.00230994     0.14400
C25         C  0.29872696  0.08684941  0.00223809     0.86200
C26         C  0.34049615  0.09603962  0.04263423    -0.54000
C27         C  0.37429581  0.08585341  0.03889721     0.09100
C28         C  0.36272641  0.06652941  0.99567713     0.20100
C29         C  0.33574286  0.09510286  0.45082221    -0.54800
C30         C  0.36767528  0.08346249  0.44870378     0.09200
C31         C  0.26967707  0.05456341  0.00290089    -0.54300
C32         C  0.30267121  0.04380604  0.99887034     0.09800
H33         H  0.34478720  0.10979570  0.07163478     0.14300
H34         H  0.38918981  0.05756278  0.99411455     0.00100
H35         H  0.33899327  0.11045328  0.42599456     0.14600
H36         H  0.22641860  0.04129636  0.00709146     0.14400
C37         C  0.08695455  0.14121530  0.49843114     0.86200
C38         C  0.10865585  0.16413407  0.03876466    -0.54000
C39         C  0.16348648  0.18115763  0.03892997     0.09100
C40         C  0.19216721  0.17365590  0.49959451     0.20100
C41         C  0.11087067  0.15866642  0.45358416    -0.54800
C42         C  0.16585076  0.17556641  0.45378623     0.09200
C43         C  0.11706780  0.12550347  0.50607506    -0.54300
C44         C  0.17170010  0.14209121  0.50550904     0.09800
H45         H  0.08408930  0.16602996  0.06557298     0.14300
H46         H  0.23673110  0.18718127  0.50003046     0.00100
H47         H  0.08589311  0.15867247  0.42513386     0.14600
H48         H  0.09754429  0.10315863  0.51180055     0.14400
C49         C  0.84487335  0.07573534  0.99885358     0.86200
C50         C  0.82503567  0.08019263  0.45615550    -0.54000
C51         C  0.77043171  0.06724388  0.45265499     0.09100
C52         C  0.73925467  0.04845313  0.99488723     0.20100
C53         C  0.81817716  0.08326030  0.03862280    -0.54800
C54         C  0.76338201  0.07001949  0.03590333     0.09200
C55         C  0.81796737  0.04351421  0.00353801    -0.54300
C56         C  0.76271648  0.02917870  0.00153824     0.09800
H57         H  0.85164457  0.09416301  0.42919188     0.14300
H58         H  0.69478707  0.03688280  0.99393321     0.00100
H59         H  0.84077178  0.09772185  0.06717281     0.14600
H60         H  0.83867941  0.03205757  0.51137109     0.14400
C61         C  0.65359122  0.36384001  0.01247535     0.86200
C62         C  0.61444269  0.35838762  0.05288187    -0.54000
C63         C  0.58156741  0.36884596  0.04633262     0.09100
C64         C  0.59295902  0.38559589  0.00081450     0.20100
C65         C  0.61697238  0.35243498  0.46714913    -0.54800
C66         C  0.58469505  0.36356445  0.46060756     0.09200
C67         C  0.68527577  0.39622284  0.00807714    -0.54300
C68         C  0.65370497  0.40758068  0.00172109     0.09800
H69         H  0.61211014  0.34656621  0.08388796     0.14300
H70         H  0.56752915  0.39508211  0.99784140     0.00100
H71         H  0.62158243  0.33931370  0.44185572     0.14600
H72         H  0.72865856  0.40950951  0.00892537     0.14400
O73         O  0.39988889  0.35605120  0.31290832    -0.82100
C74         C  0.26238690  0.26609461  0.18820093     0.97300
O75         O  0.30013267  0.26830738  0.21327536    -0.71200
O76         O  0.39078875  0.31478397  0.19670928    -0.74800
Al77       Al  0.35299053  0.29752140  0.25260598     1.49000
C78         C  0.42331048  0.34072572  0.19191416     0.92500
O79         O  0.33190231  0.35949114  0.20041783    -0.81000
O80         O  0.25135667  0.32004725  0.31287673    -0.74600
Al81       Al  0.36368149  0.35581629  0.25653253     1.90100
O82         O  0.24841277  0.32886549  0.21853823    -0.73600
O83         O  0.23822382  0.27001438  0.29358958    -0.73500
O84         O  0.24236161  0.28109399  0.19805429    -0.79100
O85         O  0.31891200  0.27769193  0.30864636    -0.77300
O86         O  0.32246367  0.31822196  0.25511720    -1.13500
O87         O  0.41250311  0.32203627  0.29064581    -0.72700
C88         C  0.42356390  0.34247133  0.31778325     0.98000
C89         C  0.28207151  0.34882720  0.19339894     0.94400
Al90       Al  0.25109735  0.30145219  0.25579350     1.55600
O91         O  0.42039606  0.35837605  0.21806018    -0.77300
C92         C  0.26907588  0.26470976  0.31676396     0.98600
C93         C  0.27682675  0.34631673  0.31978012     0.93500
O94         O  0.31704587  0.36230793  0.29517463    -0.82600
O95         O  0.56292300  0.10136113  0.30694740    -0.82100
C96         C  0.69825467  0.18753118  0.18040900     0.97300
O97         O  0.66211664  0.18675799  0.20628233    -0.71200
O98         O  0.56912012  0.14059046  0.19122597    -0.74800
Al99       Al  0.60933670  0.15833737  0.24632169     1.49000
C100        C  0.53650811  0.11467016  0.18470704     0.92500
O101        O  0.62263744  0.09266831  0.19433096    -0.81000
O102        O  0.71183802  0.13550046  0.30044461    -0.74600
Al103      Al  0.59536479  0.09931652  0.25026142     1.90100
O104        O  0.70816419  0.12329729  0.20710127    -0.73600
O105        O  0.72529736  0.18473659  0.28237805    -0.73500
O106        O  0.71496092  0.17097062  0.18740599    -0.79100
O107        O  0.64690577  0.17853063  0.30137251    -0.77300
O108        O  0.63799528  0.13660460  0.24704304    -1.13500
O109        O  0.54983827  0.13519508  0.28614380    -0.72700
C110        C  0.53982307  0.11510067  0.31285766     0.98000
C111        C  0.67148730  0.10209972  0.18547749     0.94400
Al112      Al  0.70899071  0.15226513  0.24453187     1.55600
O113        O  0.53857270  0.09714614  0.21132427    -0.77300
C114        C  0.69724353  0.19127299  0.30746810     0.98600
C115        C  0.68623479  0.10996932  0.31093182     0.93500
O116        O  0.64300159  0.09329269  0.28924023    -0.82600
C117        C  0.55673937  0.37568251  0.12651441    -0.06100
C118        C  0.53945406  0.36413479  0.08125030    -0.00100
C119        C  0.48359235  0.34579402  0.07241757    -0.08700
C120        C  0.44723545  0.33927475  0.10955623    -0.06100
C121        C  0.46458644  0.35039829  0.15482528    -0.00100
C122        C  0.52021492  0.36911249  0.16374830    -0.08600
C123        C  0.54129246  0.38096531  0.21266272     0.61800
H124        H  0.59953946  0.38938912  0.13267004     0.12500
H125        H  0.40451760  0.32508257  0.10370570     0.12500
C126        C  0.46212278  0.33207707  0.02481578     0.62000
F127        F  0.59698278  0.39668261  0.21418229    -0.23200
F128        F  0.52442732  0.35926225  0.24415601    -0.20500
F129        F  0.52235915  0.39822724  0.22655950    -0.20200
F130        F  0.48331512  0.31552171  0.51322667    -0.20200
F131        F  0.47125654  0.35090812  0.49142344    -0.20600
F132        F  0.40716286  0.31322904  0.02527565    -0.23200
C133        C  0.53912721  0.37996203  0.40670145    -0.06100
C134        C  0.54754559  0.35793616  0.41926094    -0.00100
C135        C  0.51529128  0.33124700  0.39639854    -0.08700
C136        C  0.47414204  0.32758906  0.36599637    -0.06100
C137        C  0.46490618  0.34927391  0.35480061    -0.00100
C138        C  0.49781772  0.37607882  0.37572524    -0.08600
C139        C  0.48951402  0.40044141  0.36618018     0.61800
H140        H  0.56495335  0.40057834  0.42194708     0.12500
H141        H  0.44853432  0.30720105  0.34976422     0.12500
C142        C  0.52287421  0.30627716  0.40163817     0.62000
F143        F  0.52741808  0.42486639  0.38911178    -0.23200
F144        F  0.43922372  0.39395253  0.38182139    -0.20500
F145        F  0.49351793  0.40573887  0.31852214    -0.20200
F146        F  0.52173624  0.29996671  0.44816936    -0.20200
F147        F  0.57080479  0.31213183  0.38131115    -0.20600
F148        F  0.48256711  0.28215711  0.37965669    -0.23200
C149        C  0.76946769  0.10548978  0.41110225    -0.06100
C150        C  0.74617899  0.07646528  0.41588341    -0.00100
C151        C  0.70428360  0.05824212  0.38466192    -0.08700
C152        C  0.68509665  0.06999338  0.35173972    -0.06100
C153        C  0.70773681  0.09929023  0.34794296    -0.00100
C154        C  0.75146876  0.11739358  0.37828625    -0.08600
C155        C  0.78148301  0.14921912  0.37569306     0.61800
H156        H  0.80293530  0.11914731  0.43381112     0.12500
H157        H  0.65260842  0.05618949  0.32809096     0.12500
C158        C  0.68213764  0.02687001  0.38397151     0.62000
F159        F  0.74602108  0.15878214  0.38042755    -0.23200
F160        F  0.80781263  0.15711830  0.33307484    -0.20500
F161        F  0.82001911  0.16220931  0.41081966    -0.20200
F162        F  0.65060608  0.01479531  0.42304517    -0.20200
F163        F  0.72405708  0.02176759  0.38372992    -0.20600
F164        F  0.65089600  0.01402888  0.34429319    -0.23200
C165        C  0.74010529  0.06987268  0.11987151    -0.06100
C166        C  0.73184982  0.07464155  0.07295143    -0.00100
C167        C  0.69846329  0.08597510  0.06381743    -0.08700
C168        C  0.67545683  0.09233992  0.10191578    -0.06100
C169        C  0.68675407  0.08908286  0.14824645    -0.00100
C170        C  0.71745138  0.07658362  0.15777629    -0.08600
C171        C  0.72603376  0.07041697  0.20782115     0.61800
H172        H  0.76637269  0.06185491  0.12685700     0.12500
H173        H  0.65154566  0.10192601  0.09608117     0.12500
C174        C  0.69215989  0.09472420  0.01529930     0.62000
F175        F  0.74945687  0.05409975  0.20896676    -0.23200
F176        F  0.67702846  0.05596489  0.23048514    -0.20500
F177        F  0.75916954  0.09525479  0.23195394    -0.20200
F178        F  0.67087923  0.07275664  0.48522745    -0.20200
F179        F  0.74428454  0.11550141  0.50081705    -0.20600
F180        F  0.65977643  0.10633025  0.01506324    -0.23200
C181        C  0.73306691  0.48199855  0.46170104    -0.06100
C182        C  0.72960582  0.99781142  0.00239421    -0.00100
C183        C  0.69781100  0.48209575  0.03908433    -0.08700
C184        C  0.67154952  0.45253963  0.03693963    -0.06100
C185        C  0.67676466  0.43843826  0.99802463    -0.00100
C186        C  0.70766156  0.45246512  0.45980283    -0.08600
C187        C  0.71415011  0.43819171  0.41648261     0.61800
H188        H  0.75916230  0.49445835  0.43339430     0.12500
H189        H  0.64852335  0.44014898  0.06666601     0.12500
C190        C  0.69787516  0.99774062  0.08621169     0.62000
F191        F  0.74242275  0.45722362  0.38140905    -0.23200
F192        F  0.66411815  0.41866297  0.39852491    -0.20500
F193        F  0.74168712  0.42482761  0.42779316    -0.20200
F194        F  0.67269959  0.01255857  0.07684016    -0.20200
F195        F  0.74998673  0.01583200  0.10160626    -0.20600
F196        F  0.66767675  0.47731118  0.11908365    -0.23200
C197        C  0.23776859  0.20876613  0.09637932    -0.06100
C198        C  0.19263217  0.20546463  0.07250625    -0.00100
C199        C  0.17522979  0.22465649  0.08240761    -0.08700
C200        C  0.19830530  0.24350228  0.12077373    -0.06100
C201        C  0.24121273  0.24557819  0.14739440    -0.00100
C202        C  0.26304813  0.22860007  0.13329151    -0.08600
C203        C  0.31260841  0.23087893  0.15633720     0.61800
H204        H  0.25250077  0.19508919  0.08647174     0.12500
H205        H  0.18283252  0.25706369  0.12960458     0.12500
C206        C  0.13417606  0.22664959  0.05206919     0.62000
F207        F  0.32771324  0.21350701  0.13482108    -0.23200
F208        F  0.30228158  0.22322607  0.20302267    -0.20500
F209        F  0.35570696  0.25808404  0.15302668    -0.20200
F210        F  0.08331226  0.21016441  0.07056932    -0.20200
F211        F  0.13471201  0.21837626  0.00607194    -0.20600
F212        F  0.14573477  0.25408640  0.05075904    -0.23200
C213        C  0.23101339  0.22515955  0.43267365    -0.06100
C214        C  0.19612546  0.19729788  0.41710865    -0.00100
C215        C  0.18806435  0.19175617  0.36784993    -0.08700
C216        C  0.21166697  0.21446516  0.33658190    -0.06100
C217        C  0.24578063  0.24217524  0.35232804    -0.00100
C218        C  0.25590366  0.24773114  0.40109388    -0.08600
C219        C  0.29052540  0.27759328  0.41959940     0.61800
H220        H  0.23724167  0.22935111  0.47013007     0.12500
H221        H  0.20443591  0.21043837  0.29907561     0.12500
C222        C  0.15638559  0.16252097  0.34609897     0.62000
F223        F  0.29197741  0.27886310  0.46829088    -0.23200
F224        F  0.26988975  0.29364652  0.40388267    -0.20500
F225        F  0.34264221  0.28893901  0.40362139    -0.20200
F226        F  0.14734986  0.14169331  0.37724672    -0.20200
F227        F  0.18470303  0.16037148  0.30866776    -0.20600
F228        F  0.10752990  0.15787819  0.32964666    -0.23200
C229        C  0.99650774  0.13689097  0.50826206    -0.06100
C230        C  0.02465318  0.12327854  0.49649398    -0.00100
C231        C  0.99241661  0.09700227  0.97443230    -0.08700
C232        C  0.93601409  0.08161028  0.98048573    -0.06100
C233        C  0.90886153  0.09331846  0.50224728    -0.00100
C234        C  0.93996527  0.12329029  0.50843087    -0.08600
C235        C  0.91831095  0.14304117  0.51506161     0.61800
H236        H  0.01929061  0.15927829  0.51526847     0.12500
H237        H  0.91388938  0.06035538  0.96665243     0.12500
C238        C  0.01464878  0.08352862  0.94178000     0.62000
F239        F  0.94784714  0.16672769  0.48802299    -0.23200
F240        F  0.91454468  0.14881922  0.06111696    -0.20500
F241        F  0.86557026  0.13190187  0.50158903    -0.20200
F242        F  0.01584254  0.06208802  0.96483277    -0.20200
F243        F  0.06251452  0.09781535  0.42875891    -0.20600
F244        F  0.98147364  0.07228595  0.90263119    -0.23200
C245        C  0.49978171  0.12655268  0.11575762    -0.06100
C246        C  0.49548006  0.10549046  0.14581405    -0.00100
C247        C  0.45246618  0.07729825  0.13791821    -0.08700
C248        C  0.41483907  0.07181234  0.10159568    -0.06100
C249        C  0.41826218  0.09323997  0.07354807    -0.00100
C250        C  0.46210912  0.12105615  0.07989099    -0.08600
C251        C  0.47002206  0.14504829  0.04885648     0.61800
H252        H  0.53281557  0.14784347  0.12093616     0.12500
H253        H  0.38134489  0.05073617  0.09544953     0.12500
C254        C  0.44519166  0.05292884  0.16738141     0.62000
F255        F  0.43068341  0.15146422  0.05769342    -0.23200
F256        F  0.46774814  0.13765870  0.00202693    -0.20500
F257        F  0.52153586  0.16773224  0.54956204    -0.20200
F258        F  0.43850247  0.05755824  0.21415893    -0.20200
F259        F  0.48968390  0.05008389  0.16264019    -0.20600
F260        F  0.40040415  0.02770937  0.15354876    -0.23200
C261        C  0.44908319  0.10400487  0.33343799    -0.06100
C262        C  0.49712488  0.10641745  0.34846753    -0.00100
C263        C  0.50260159  0.10068514  0.39576425    -0.08700
C264        C  0.45914484  0.09297099  0.42660027    -0.06100
C265        C  0.41019153  0.09037755  0.41178714    -0.00100
C266        C  0.40475704  0.09504149  0.36325601    -0.08600
C267        C  0.35376028  0.09073996  0.34046933     0.61800
H268        H  0.44588305  0.10861239  0.29700859     0.12500
H269        H  0.46421273  0.08975714  0.46318537     0.12500
C270        C  0.55489476  0.10407524  0.41416237     0.62000
F271        F  0.35061037  0.08289941  0.29356342    -0.23200
F272        F  0.35382899  0.11561447  0.34253760    -0.20500
F273        F  0.30872512  0.06965367  0.36177170    -0.20200
F274        F  0.59709419  0.13085406  0.40490646    -0.20200
F275        F  0.56443003  0.08461548  0.39260364    -0.20600
F276        F  0.55348943  0.10009803  0.46225479    -0.23200
C277        C  0.24813972  0.10580598  0.54081696    -0.06100
C278        C  0.25981319  0.09846441  0.00454465    -0.00100
C279        C  0.22845821  0.09817440  0.96525805    -0.08700
C280        C  0.20342349  0.11421123  0.96761763    -0.06100
C281        C  0.20600976  0.12938222  0.50498648    -0.00100
C282        C  0.21998886  0.12015294  0.54588073    -0.08600
C283        C  0.20580552  0.12416652  0.59561833     0.61800
H284        H  0.25871183  0.09908836  0.57250260     0.12500
H285        H  0.18232820  0.11520550  0.93686144     0.12500
C286        C  0.21721125  0.08104841  0.92014961     0.62000
F287        F  0.19729486  0.11063564  0.12899219    -0.23200
F288        F  0.18452922  0.14394144  0.10032449    -0.20500
F289        F  0.25260552  0.13938335  0.62178237    -0.20200
F290        F  0.23253151  0.06144887  0.92183440    -0.20200
F291        F  0.26193403  0.10714882  0.37606599    -0.20600
F292        F  0.17509346  0.07897608  0.39437882    -0.23200
C293        C  0.21532999  0.38282482  0.38583228    -0.06100
C294        C  0.22238948  0.37762798  0.43286210    -0.00100
C295        C  0.25281207  0.36455235  0.44213512    -0.08700
C296        C  0.27070302  0.35520981  0.40386222    -0.06100
C297        C  0.26004044  0.35868743  0.35738603    -0.00100
C298        C  0.23412751  0.37379813  0.34782264    -0.08600
C299        C  0.22537413  0.37974923  0.29768600     0.61800
H300        H  0.19331497  0.39336398  0.37907217     0.12500
H301        H  0.29285525  0.34469098  0.40978954     0.12500
C302        C  0.26464483  0.35893119  0.49137541     0.62000
F303        F  0.19782941  0.39400528  0.29602446    -0.23200
F304        F  0.19586804  0.35478759  0.27277454    -0.20500
F305        F  0.27455732  0.39608355  0.27615467    -0.20200
F306        F  0.23132065  0.34747399  0.01584820    -0.20200
F307        F  0.30548032  0.39069303  0.00979781    -0.20600
F308        F  0.29325459  0.34520531  0.49120614    -0.23200
C309        C  0.25886937  0.39331898  0.10529301    -0.06100
C310        C  0.20700607  0.37353662  0.08853213    -0.00100
C311        C  0.18286827  0.34511520  0.10345942    -0.08700
C312        C  0.20902649  0.33881867  0.13825376    -0.06100
C313        C  0.26045693  0.35856305  0.15539292    -0.00100
C314        C  0.28725314  0.38603745  0.13675543    -0.08600
C315        C  0.34549286  0.40742770  0.14880114     0.61800
H316        H  0.27781857  0.41457151  0.09259605     0.12500
H317        H  0.18944393  0.31758881  0.15139542     0.12500
C318        C  0.13238939  0.32030049  0.08140852     0.62000
F319        F  0.37798529  0.39737093  0.13379862    -0.23200
F320        F  0.35152506  0.41239394  0.19681010    -0.20500
F321        F  0.36300902  0.43282637  0.12696084    -0.20200
F322        F  0.12017631  0.32122765  0.54253389    -0.20200
F323        F  0.08696692  0.31707299  0.10320880    -0.20600
F324        F  0.13226979  0.29553651  0.08679727    -0.23200
C325        C  0.25888830  0.50013518  0.04402594    -0.06100
C326        C  0.28176841  0.01304112  0.00298596    -0.00100
C327        C  0.28065057  0.49542440  0.46193199    -0.08700
C328        C  0.25596241  0.46630701  0.46865533    -0.06100
C329        C  0.22950819  0.45425310  0.00875655    -0.00100
C330        C  0.23204458  0.47070685  0.04828226    -0.08600
C331        C  0.20494506  0.45722934  0.09426903     0.61800
H332        H  0.26220269  0.01371879  0.07543514     0.12500
H333        H  0.25329428  0.45263111  0.43990404     0.12500
C334        C  0.29733854  0.00722655  0.41434534     0.62000
F335        F  0.14969086  0.44296923  0.08853434    -0.23200
F336        F  0.21870072  0.47701235  0.12994266    -0.21700
F337        F  0.22032291  0.43862640  0.10826229    -0.20200
F338        F  0.35224771  0.02570439  0.41632480    -0.20200
F339        F  0.27191195  0.02101875  0.39919824    -0.20600
F340        F  0.29422852  0.48662683  0.38150982    -0.23200
C341        C  0.79720760  0.24602915  0.39516218    -0.06100
C342        C  0.76559135  0.25480973  0.41927675    -0.00100
C343        C  0.71184587  0.24366496  0.40297278    -0.08700
C344        C  0.69036744  0.22155334  0.36939351    -0.06100
C345        C  0.72301574  0.21396441  0.34436391    -0.00100
C346        C  0.77902690  0.22905872  0.35444825    -0.08600
C347        C  0.82080337  0.22988184  0.32102742     0.61800
H348        H  0.83779392  0.25332834  0.40688434     0.12500
H349        H  0.64806473  0.21146270  0.36028569     0.12500
C350        C  0.67816145  0.25638797  0.41538819     0.62000
F351        F  0.87258666  0.25055123  0.33380962    -0.23200
F352        F  0.81152971  0.23582069  0.27607159    -0.20500
F353        F  0.81878563  0.20461618  0.32066362    -0.20200
F354        F  0.71061032  0.28498488  0.42275974    -0.20200
F355        F  0.64764931  0.24344560  0.45463524    -0.20600
F356        F  0.64344020  0.25270360  0.37880661    -0.23200
C357        C  0.75799746  0.22565607  0.06508128    -0.06100
C358        C  0.76993672  0.25283622  0.07723828    -0.00100
C359        C  0.75759143  0.25834214  0.12275334    -0.08700
C360        C  0.73352271  0.23625234  0.15496211    -0.06100
C361        C  0.72269560  0.20915298  0.14344480    -0.00100
C362        C  0.73485927  0.20358770  0.09765346    -0.08600
C363        C  0.72272628  0.17450297  0.08292962     0.61800
H364        H  0.76802547  0.22203259  0.03000981     0.12500
H365        H  0.72399842  0.24015402  0.19003957     0.12500
C366        C  0.77011763  0.28747323  0.13723281     0.62000
F367        F  0.73084762  0.17286354  0.03528491    -0.23200
F368        F  0.66959147  0.15485452  0.09255061    -0.20500
F369        F  0.75606647  0.16790488  0.10713663    -0.20200
F370        F  0.74300794  0.29579073  0.10797440    -0.20200
F371        F  0.82484679  0.30623003  0.13411814    -0.20600
F372        F  0.75461563  0.28832824  0.18299632    -0.23200
C373        C  0.02184018  0.33344741  0.00608205    -0.06100
C374        C  0.04867693  0.36206098  0.99469226    -0.00100
C375        C  0.01624786  0.37328035  0.47669745    -0.08700
C376        C  0.95991109  0.35705021  0.48181207    -0.06100
C377        C  0.93421093  0.32837511  0.99440129    -0.00100
C378        C  0.96596288  0.31581734  0.00216252    -0.08600
C379        C  0.94566627  0.28446141  0.00506429     0.61800
H380        H  0.04530117  0.32417998  0.01594277     0.12500
H381        H  0.93653243  0.36568432  0.46880712     0.12500
C382        C  0.03762154  0.39851465  0.44470238     0.62000
F383        F  0.97673256  0.27820533  0.97620488    -0.23200
F384        F  0.89340806  0.26766086  0.49622409    -0.20500
F385        F  0.95107237  0.27797212  0.05077723    -0.20200
F386        F  0.08623674  0.40530600  0.42466074    -0.20200
F387        F  0.04403190  0.41965832  0.96062815    -0.20600
F388        F  0.00206194  0.39258217  0.40769468    -0.23200
C389        C  0.69935596  0.30932805  0.01108466    -0.06100
C390        C  0.75486255  0.32598556  0.01911869    -0.00100
C391        C  0.76992747  0.35137968  0.54058557    -0.08700
C392        C  0.73663779  0.36287243  0.53695919    -0.06100
C393        C  0.68638190  0.34924868  0.01980722    -0.00100
C394        C  0.66427179  0.31963723  0.01462227    -0.08600
C395        C  0.60502235  0.29692727  0.01302322     0.61800
H396        H  0.68168244  0.28750940  0.00332195     0.12500
H397        H  0.75223408  0.38394793  0.55039484     0.12500
C398        C  0.82032303  0.36803907  0.57079092     0.62000
F399        F  0.59019845  0.28417816  0.46572276    -0.23200
F400        F  0.56779613  0.30386313  0.52436954    -0.20500
F401        F  0.59579284  0.27632265  0.04500584    -0.20200
F402        F  0.85964531  0.39013843  0.54528365    -0.20200
F403        F  0.84299333  0.35432156  0.08560475    -0.20600
F404        F  0.81762174  0.38483960  0.10237195    -0.23200
C405        C  0.87184318  0.31254148  0.50164053     0.86200
C406        C  0.85067827  0.29270238  0.54406596    -0.54000
C407        C  0.79641175  0.27525167  0.54449264     0.09100
C408        C  0.76727355  0.28017932  0.50429407     0.20100
C409        C  0.84639593  0.29471128  0.95447063    -0.54800
C410        C  0.79180070  0.27732006  0.95610007     0.09200
C411        C  0.84212578  0.32878596  0.50540347    -0.54300
C412        C  0.78945859  0.31325944  0.00885733     0.09800
H413        H  0.87639142  0.29213800  0.57118537     0.14300
H414        H  0.72367219  0.26528907  0.50675384     0.00100
H415        H  0.87049514  0.29598483  0.92427811     0.14600
H416        H  0.86252413  0.35137690  0.50573971     0.14400
C417        C  0.10938121  0.37913102  0.50284009     0.86200
C418        C  0.13708846  0.37076020  0.96253301    -0.54000
C419        C  0.19161847  0.38282018  0.96677287     0.09100
C420        C  0.21337330  0.40157858  0.51360723     0.20100
C421        C  0.12631219  0.37198279  0.54952847    -0.54800
C422        C  0.18009564  0.38196640  0.55432798     0.09200
C423        C  0.14033537  0.41118518  0.50498594    -0.54300
C424        C  0.19450669  0.42303423  0.51056155     0.09800
H425        H  0.11416408  0.35624905  0.93402040     0.14300
H426        H  0.25754954  0.41203536  0.51721309     0.00100
H427        H  0.09751802  0.36023497  0.57652478     0.14600
H428        H  0.12184037  0.42382849  0.50393336     0.14400
C429        C  0.29876023  0.08696202  0.49434360     0.86200
C430        C  0.33965265  0.09674579  0.53544477    -0.54000
C431        C  0.37253120  0.08595849  0.53446681     0.09100
C432        C  0.36134691  0.06574995  0.49264402     0.20100
C433        C  0.33477699  0.09606651  0.95806481    -0.54800
C434        C  0.36746566  0.08500272  0.95334992     0.09200
C435        C  0.26857469  0.05470405  0.49641254    -0.54300
C436        C  0.30102944  0.04355138  0.49532735     0.09800
H437        H  0.34333883  0.11131580  0.56297729     0.14300
H438        H  0.38691309  0.05624618  0.49311636     0.00100
H439        H  0.33655096  0.11177908  0.93502400     0.14600
H440        H  0.22511940  0.04179701  0.49944905     0.14400
C441        C  0.08555994  0.14193422  0.99858009     0.86200
C442        C  0.10946550  0.16321547  0.53890927    -0.54000
C443        C  0.16401627  0.18087825  0.53866252     0.09100
C444        C  0.19102816  0.17285686  0.00077962     0.20100
C445        C  0.11091654  0.15911159  0.95384397    -0.54800
C446        C  0.16602861  0.17514813  0.95419298     0.09200
C447        C  0.11368442  0.12527984  0.00721713    -0.54300
C448        C  0.16852298  0.14106427  0.00767270     0.09800
H449        H  0.08458777  0.16411508  0.56653866     0.14300
H450        H  0.23566322  0.18566783  0.00154703     0.00100
H451        H  0.08643959  0.15986960  0.92580476     0.14600
H452        H  0.09226811  0.10275276  0.01215978     0.14400
C453        C  0.84650997  0.07584032  0.50230683     0.86200
C454        C  0.82173086  0.07903457  0.95272893    -0.54000
C455        C  0.76685034  0.06540214  0.95016442     0.09100
C456        C  0.74110583  0.04975952  0.49645095     0.20100
C457        C  0.81968722  0.08333929  0.54207989    -0.54800
C458        C  0.76493682  0.07076235  0.53830766     0.09200
C459        C  0.81811845  0.04349840  0.50591175    -0.54300
C460        C  0.76307379  0.02980686  0.50287679     0.09800
H461        H  0.84733872  0.09294686  0.92524847     0.14300
H462        H  0.69670354  0.03856919  0.49453717     0.00100
H463        H  0.84231323  0.09765140  0.57084154     0.14600
H464        H  0.83993950  0.03274699  0.00846344     0.14400
C465        C  0.65060155  0.36177874  0.51301747     0.86200
C466        C  0.61114559  0.35647080  0.55302422    -0.54000
C467        C  0.57934713  0.36751673  0.54611654     0.09100
C468        C  0.59147972  0.38430147  0.50073187     0.20100
C469        C  0.61952808  0.35421411  0.96690987    -0.54800
C470        C  0.58656847  0.36493702  0.96061581     0.09200
C471        C  0.68312145  0.39417344  0.50883118    -0.54300
C472        C  0.65224255  0.40589261  0.50207896     0.09800
H473        H  0.60808410  0.34454490  0.58410652     0.14300
H474        H  0.56661665  0.39410977  0.49766877     0.00100
H475        H  0.62445682  0.34125203  0.94150239     0.14600
H476        H  0.72656548  0.40714713  0.51022428     0.14400
O477        O  0.40083102  0.35584018  0.81280878    -0.82100
C478        C  0.26541709  0.26528412  0.68807711     0.97300
O479        O  0.30401546  0.26804615  0.71256471    -0.71200
O480        O  0.39241064  0.31554742  0.69591034    -0.74800
Al481      Al  0.35628176  0.29774026  0.75175872     1.49000
C482        C  0.42350030  0.34163462  0.69118356     0.92500
O483        O  0.33038405  0.35884043  0.70171957    -0.81000
O484        O  0.25151815  0.31753514  0.81312169    -0.74600
Al485      Al  0.36339254  0.35521561  0.75704071     1.90100
O486        O  0.24771258  0.32682575  0.71937671    -0.73600
O487        O  0.24192391  0.26843920  0.79297965    -0.73500
O488        O  0.24495395  0.28003949  0.69799677    -0.79100
O489        O  0.32356229  0.27750193  0.80799212    -0.77300
O490        O  0.32393754  0.31753426  0.75505205    -1.13500
O491        O  0.41582944  0.32285581  0.78924850    -0.72700
C492        C  0.42602606  0.34299782  0.81677456     0.98000
C493        C  0.28036517  0.34766322  0.69522350     0.94400
Al494      Al  0.25253312  0.29972436  0.75586375     1.55600
O495        O  0.42014238  0.35889790  0.71791230    -0.77300
C496        C  0.27368458  0.26373900  0.81609267     0.98600
C497        C  0.27576693  0.34374738  0.82014362     0.93500
O498        O  0.31599527  0.36031143  0.79619255    -0.82600
O499        O  0.55558653  0.09997358  0.80548786    -0.82100
C500        C  0.69438872  0.18635583  0.68067129     0.97300
O501        O  0.65738364  0.18546985  0.70548570    -0.71200
O502        O  0.56331890  0.14014402  0.69116681    -0.74800
Al503      Al  0.60441588  0.15775223  0.74606121     1.49000
C504        C  0.53072692  0.11430339  0.68406300     0.92500
O505        O  0.61763431  0.09193195  0.69312788    -0.81000
O506        O  0.70427743  0.13361894  0.80166721    -0.74600
Al507      Al  0.58916027  0.09824125  0.74913319     1.90100
O508        O  0.70272485  0.12205962  0.70836184    -0.73600
O509        O  0.72030022  0.18355524  0.78305456    -0.73500
O510        O  0.71108379  0.16988885  0.68855522    -0.79100
O511        O  0.64260165  0.17839737  0.80095199    -0.77300
O512        O  0.63231648  0.13561121  0.74692782    -1.13500
O513        O  0.54518041  0.13501323  0.78637014    -0.72700
C514        C  0.53407254  0.11445933  0.81233155     0.98000
C515        C  0.66678344  0.10123427  0.68557179     0.94400
Al516      Al  0.70335084  0.15089832  0.74557097     1.55600
O517        O  0.53313676  0.09653367  0.70971966    -0.77300
C518        C  0.69288222  0.19084991  0.80726798     0.98600
C519        C  0.67851313  0.10793824  0.81138740     0.93500
O520        O  0.63580451  0.09151195  0.78874795    -0.82600
C521        C  0.55553999  0.37687502  0.62480887    -0.06100
C522        C  0.53784697  0.36371496  0.58063514    -0.00100
C523        C  0.48201090  0.34533917  0.57215950    -0.08700
C524        C  0.44609822  0.33950136  0.60920686    -0.06100
C525        C  0.46387300  0.35178553  0.65367539    -0.00100
C526        C  0.51919707  0.37156655  0.66164304    -0.08600
C527        C  0.53995310  0.38641685  0.70884058     0.61800
H528        H  0.59831216  0.39104681  0.63031976     0.12500
H529        H  0.40344025  0.32484653  0.60401609     0.12500
C530        C  0.46008959  0.33099958  0.52506261     0.62000
F531        F  0.59556583  0.40285971  0.70999680    -0.23200
F532        F  0.52420489  0.36694163  0.74429316    -0.20500
F533        F  0.51958558  0.40373945  0.71738071    -0.20200
F534        F  0.48673978  0.31749989  0.01157966    -0.20200
F535        F  0.47205365  0.35232441  0.99216273    -0.20600
F536        F  0.40483866  0.31290359  0.52557628    -0.23200
C537        C  0.54090590  0.38102292  0.90617616    -0.06100
C538        C  0.54960219  0.35914045  0.91907374    -0.00100
C539        C  0.51836231  0.33250443  0.89573873    -0.08700
C540        C  0.47764351  0.32871524  0.86470558    -0.06100
C541        C  0.46781892  0.35017696  0.85345403    -0.00100
C542        C  0.50038961  0.37706962  0.87417962    -0.08600
C543        C  0.49281464  0.40150668  0.86309163     0.61800
H544        H  0.56589691  0.40158603  0.92188569     0.12500
H545        H  0.45277943  0.30837580  0.84807952     0.12500
C546        C  0.52641110  0.30767551  0.90115050     0.62000
F547        F  0.53148633  0.42622621  0.88479677    -0.23200
F548        F  0.44294942  0.39571045  0.87870701    -0.20500
F549        F  0.49641258  0.40590625  0.81513439    -0.20200
F550        F  0.52541517  0.30142566  0.94768616    -0.20200
F551        F  0.57443648  0.31366118  0.88085124    -0.20600
F552        F  0.48626985  0.28344438  0.87928310    -0.23200
C553        C  0.76284202  0.10313120  0.91027551    -0.06100
C554        C  0.74083966  0.07422179  0.91429891    -0.00100
C555        C  0.69814788  0.05590870  0.88372464    -0.08700
C556        C  0.67789625  0.06760784  0.85148657    -0.06100
C557        C  0.69966498  0.09691403  0.84839239    -0.00100
C558        C  0.74299838  0.11491445  0.87916199    -0.08600
C559        C  0.77173651  0.14667529  0.87806178     0.61800
H560        H  0.79692126  0.11687111  0.93226483     0.12500
H561        H  0.64545034  0.05383279  0.82778497     0.12500
C562        C  0.67637382  0.02455620  0.88304808     0.62000
F563        F  0.73522077  0.15560078  0.88213275    -0.23200
F564        F  0.79956069  0.15519982  0.83627061    -0.20500
F565        F  0.80875460  0.15949723  0.91435938    -0.20200
F566        F  0.64811786  0.01269257  0.92373047    -0.20200
F567        F  0.71844520  0.01964277  0.87951822    -0.20600
F568        F  0.64202423  0.01129895  0.84522080    -0.23200
C569        C  0.74054970  0.07106453  0.62186162    -0.06100
C570        C  0.73286846  0.07558501  0.57465601    -0.00100
C571        C  0.69876804  0.08639625  0.56455421    -0.08700
C572        C  0.67354530  0.09188509  0.60201785    -0.06100
C573        C  0.68379756  0.08865432  0.64875097    -0.00100
C574        C  0.71644119  0.07734536  0.65916863    -0.08600
C575        C  0.72494384  0.07157672  0.70955161     0.61800
H576        H  0.76715587  0.06332884  0.62949875     0.12500
H577        H  0.64853354  0.10074958  0.59540839     0.12500
C578        C  0.69372997  0.09545310  0.51579673     0.62000
F579        F  0.75325100  0.05775011  0.71169327    -0.23200
F580        F  0.67552247  0.05487773  0.73056074    -0.20500
F581        F  0.75352969  0.09647527  0.73476329    -0.20200
F582        F  0.66900347  0.07184401  0.98510552    -0.20200
F583        F  0.74229952  0.11486518  0.99971205    -0.20600
F584        F  0.66176081  0.10729589  0.51497105    -0.23200
C585        C  0.73223822  0.48365527  0.96044997    -0.06100
C586        C  0.72917663  0.99847581  0.50293929    -0.00100
C587        C  0.69241541  0.48014459  0.53754239    -0.08700
C588        C  0.66723026  0.45063673  0.53572812    -0.06100
C589        C  0.67565776  0.43673747  0.49833330    -0.00100
C590        C  0.70692624  0.45411237  0.95863680    -0.08600
C591        C  0.71293926  0.43987553  0.91503483     0.61800
H592        H  0.75677512  0.49603349  0.93135789     0.12500
H593        H  0.64205630  0.43810937  0.56445088     0.12500
C594        C  0.69602183  0.99804913  0.58636353     0.62000
F595        F  0.73870612  0.45873711  0.87912760    -0.23200
F596        F  0.66292365  0.41942394  0.89851159    -0.20500
F597        F  0.74278380  0.42765782  0.92557689    -0.20200
F598        F  0.67099780  0.01289607  0.57650750    -0.20200
F599        F  0.74775101  0.01615758  0.60262989    -0.20600
F600        F  0.65288967  0.47480285  0.61399509    -0.23200
C601        C  0.23451015  0.20533725  0.59997103    -0.06100
C602        C  0.19275649  0.20429724  0.57360850    -0.00100
C603        C  0.17901527  0.22512611  0.58153130    -0.08700
C604        C  0.20419768  0.24455434  0.61879394    -0.06100
C605        C  0.24353010  0.24451183  0.64779163    -0.00100
C606        C  0.26020848  0.22486625  0.63717892    -0.08600
C607        C  0.30395114  0.22366352  0.66482914     0.61800
H608        H  0.24594135  0.19004102  0.59183171     0.12500
H609        H  0.19241722  0.25985552  0.62578275     0.12500
C610        C  0.13881103  0.22757214  0.55061591     0.62000
F611        F  0.31285151  0.20290904  0.64793425    -0.23200
F612        F  0.28905486  0.21788158  0.71146810    -0.20500
F613        F  0.35204454  0.24896604  0.66154849    -0.20200
F614        F  0.08694271  0.20787642  0.56342748    -0.20200
F615        F  0.14633082  0.22361018  0.50377921    -0.20600
F616        F  0.14465283  0.25385791  0.55503415    -0.23200
C617        C  0.23735564  0.22381483  0.93193538    -0.06100
C618        C  0.19757860  0.19655023  0.91700904    -0.00100
C619        C  0.18684006  0.19130699  0.86782993    -0.08700
C620        C  0.21232305  0.21391132  0.83647473    -0.06100
C621        C  0.25105528  0.24107257  0.85163227    -0.00100
C622        C  0.26477485  0.24610166  0.89999658    -0.08600
C623        C  0.30655132  0.27519707  0.91787708     0.61800
H624        H  0.24567201  0.22788900  0.96921467     0.12500
H625        H  0.20235290  0.21030790  0.79929802     0.12500
C626        C  0.14941319  0.16233726  0.84680734     0.62000
F627        F  0.31082261  0.27631397  0.96644624    -0.23200
F628        F  0.29264373  0.29446882  0.90417502    -0.20500
F629        F  0.35631850  0.28272017  0.89953102    -0.20200
F630        F  0.14745499  0.14153439  0.87438250    -0.20200
F631        F  0.16721772  0.15980845  0.80283710    -0.20600
F632        F  0.09834592  0.15817856  0.84174048    -0.23200
C633        C  0.99434622  0.13724980  0.00959195    -0.06100
C634        C  0.02318929  0.12436839  0.99538373    -0.00100
C635        C  0.99322707  0.09487927  0.48002195    -0.08700
C636        C  0.93699048  0.08013504  0.48700300    -0.06100
C637        C  0.90723203  0.09379815  0.99847606    -0.00100
C638        C  0.93773508  0.12352384  0.00763848    -0.08600
C639        C  0.91491430  0.14276386  0.01384666     0.61800
H640        H  0.01645226  0.15928805  0.01926768     0.12500
H641        H  0.91456586  0.05838850  0.47591430     0.12500
C642        C  0.01463827  0.07964947  0.45063747     0.62000
F643        F  0.94706884  0.16776143  0.99068305    -0.23200
F644        F  0.92404531  0.15136811  0.56179697    -0.20500
F645        F  0.86403505  0.13184501  0.99538054    -0.20200
F646        F  0.02096101  0.06135628  0.47867765    -0.20200
F647        F  0.06519619  0.10224062  0.92511752    -0.20600
F648        F  0.97837139  0.06413150  0.41503778    -0.23200
C649        C  0.49749973  0.12596072  0.61227115    -0.06100
C650        C  0.48979386  0.10540723  0.64513348    -0.00100
C651        C  0.44346369  0.07793713  0.64005271    -0.08700
C652        C  0.40725766  0.07241551  0.60248244    -0.06100
C653        C  0.41475068  0.09326167  0.57088127    -0.00100
C654        C  0.46072309  0.12054264  0.57553488    -0.08600
C655        C  0.47151048  0.14395920  0.54183856     0.61800
H656        H  0.53273095  0.14676315  0.61578488     0.12500
H657        H  0.37173418  0.05176651  0.59797496     0.12500
C658        C  0.43091555  0.05452523  0.67421123     0.62000
F659        F  0.43330342  0.15154818  0.54735623    -0.23200
F660        F  0.47002685  0.13516679  0.49598583    -0.20500
F661        F  0.51941244  0.16921933  0.05681277    -0.20200
F662        F  0.42799852  0.06301609  0.71953290    -0.20200
F663        F  0.47049631  0.04767973  0.67182635    -0.20600
F664        F  0.38217693  0.03039386  0.66403963    -0.23200
C665        C  0.44380974  0.10358197  0.83510821    -0.06100
C666        C  0.49269878  0.10657292  0.84902380    -0.00100
C667        C  0.50113864  0.10305216  0.89672130    -0.08700
C668        C  0.45936518  0.09633270  0.92902522    -0.06100
C669        C  0.40938021  0.09292018  0.91541543    -0.00100
C670        C  0.40150099  0.09639747  0.86679839    -0.08600
C671        C  0.34958895  0.09243893  0.84641828     0.61800
H672        H  0.43896547  0.10687728  0.79837401     0.12500
H673        H  0.46619637  0.09411593  0.96567024     0.12500
C674        C  0.55464156  0.10733476  0.91361001     0.62000
F675        F  0.34670292  0.08836047  0.79807536    -0.23200
F676        F  0.34649388  0.11604461  0.85536346    -0.20500
F677        F  0.30594714  0.06912016  0.86497118    -0.20200
F678        F  0.59613852  0.13343746  0.90006666    -0.20200
F679        F  0.56254475  0.08676496  0.89434008    -0.20600
F680        F  0.55667202  0.10595627  0.96210644    -0.23200
C681        C  0.25453460  0.11045278  0.04705971    -0.06100
C682        C  0.26089900  0.09905260  0.49643356    -0.00100
C683        C  0.23728526  0.10385223  0.45622821    -0.08700
C684        C  0.21521983  0.12117053  0.46095262    -0.06100
C685        C  0.20148248  0.12744652  0.00906572    -0.00100
C686        C  0.22471493  0.12405548  0.05040322    -0.08600
C687        C  0.21839548  0.13336118  0.09922281     0.61800
H688        H  0.27121817  0.10814077  0.07933827     0.12500
H689        H  0.20003505  0.12606179  0.42992073     0.12500
C690        C  0.22740282  0.08873682  0.40922312     0.62000
F691        F  0.17446626  0.09813871  0.61583552    -0.23200
F692        F  0.17768758  0.13801268  0.59788380    -0.20500
F693        F  0.26836285  0.15371119  0.11625604    -0.20200
F694        F  0.23296987  0.06561658  0.41172788    -0.20200
F695        F  0.24296498  0.09896059  0.88322114    -0.20600
F696        F  0.16238843  0.06641381  0.91110815    -0.23200
C697        C  0.20922432  0.37811552  0.88321183    -0.06100
C698        C  0.22240928  0.37687567  0.93050877    -0.00100
C699        C  0.25745291  0.36645092  0.94030543    -0.08700
C700        C  0.27402841  0.35599451  0.90275220    -0.06100
C701        C  0.25742710  0.35563715  0.85671761    -0.00100
C702        C  0.22601087  0.36756474  0.84609189    -0.08600
C703        C  0.20993331  0.36877145  0.79576003     0.61800
H704        H  0.18403069  0.38676372  0.87563139     0.12500
H705        H  0.29968238  0.34745112  0.90890030     0.12500
C706        C  0.27562906  0.36442515  0.98929980     0.62000
F707        F  0.17595092  0.37934687  0.79322970    -0.23200
F708        F  0.18352878  0.34211960  0.77583005    -0.20500
F709        F  0.25546811  0.38591002  0.76992905    -0.20200
F710        F  0.21703948  0.34209516  0.51422170    -0.20200
F711        F  0.29512196  0.38383866  0.51589538    -0.20600
F712        F  0.30775357  0.35265801  0.98921227    -0.23200
C713        C  0.25518217  0.39273912  0.60957393    -0.06100
C714        C  0.20345635  0.37291943  0.59251183    -0.00100
C715        C  0.17852533  0.34467330  0.60878547    -0.08700
C716        C  0.20567958  0.33825802  0.64247433    -0.06100
C717        C  0.25751030  0.35785035  0.65892688    -0.00100
C718        C  0.28339184  0.38564434  0.64161456    -0.08600
C719        C  0.34028195  0.40779683  0.65632787     0.61800
H720        H  0.27411508  0.41396892  0.59679907     0.12500
H721        H  0.18625682  0.31710803  0.65584732     0.12500
C722        C  0.12484173  0.32024355  0.59066328     0.62000
F723        F  0.37582718  0.39972409  0.64134936    -0.23200
F724        F  0.34346761  0.41115528  0.70471825    -0.20500
F725        F  0.35628532  0.43365648  0.63687277    -0.20200
F726        F  0.12946251  0.32348825  0.03358048    -0.20200
F727        F  0.08269720  0.32054688  0.61283975    -0.20600
F728        F  0.11974377  0.29455171  0.59985071    -0.23200
C729        C  0.25809352  0.50024975  0.54273584    -0.06100
C730        C  0.27956195  0.01286685  0.50066075    -0.00100
C731        C  0.28099096  0.49695688  0.96241277    -0.08700
C732        C  0.25520423  0.46756156  0.96706106    -0.06100
C733        C  0.23038237  0.45392411  0.51083514    -0.00100
C734        C  0.23205861  0.47102769  0.54896152    -0.08600
C735        C  0.20615917  0.45844845  0.59580601     0.61800
H736        H  0.26139357  0.01448754  0.57325471     0.12500
H737        H  0.25239112  0.45448855  0.93728170     0.12500
C738        C  0.30220231  0.00823419  0.91688147     0.62000
F739        F  0.15107575  0.44143394  0.59041364    -0.23200
F740        F  0.21587266  0.47897588  0.62907279    -0.21700
F741        F  0.22679088  0.44267969  0.61283967    -0.20200
F742        F  0.35673394  0.02732025  0.92059895    -0.20200
F743        F  0.27617429  0.02138771  0.90032256    -0.20600
F744        F  0.29486167  0.48997846  0.88113748    -0.23200
C745        C  0.79328660  0.24479840  0.89572047    -0.06100
C746        C  0.76320213  0.25504542  0.91806851    -0.00100
C747        C  0.71032987  0.24520081  0.90058422    -0.08700
C748        C  0.68810804  0.22316847  0.86670590    -0.06100
C749        C  0.71944685  0.21400201  0.84349548    -0.00100
C750        C  0.77507420  0.22777781  0.85514751    -0.08600
C751        C  0.81693351  0.22735292  0.82345812     0.61800
H752        H  0.83307132  0.25122261  0.90869974     0.12500
H753        H  0.64632977  0.21405991  0.85643540     0.12500
C754        C  0.67784492  0.25851663  0.91380660     0.62000
F755        F  0.86898216  0.24626124  0.83851322    -0.23200
F756        F  0.81154120  0.23464983  0.77831598    -0.20500
F757        F  0.81097084  0.20123583  0.82264012    -0.20200
F758        F  0.71124727  0.28708533  0.92099208    -0.20200
F759        F  0.64822401  0.24593527  0.95361208    -0.20600
F760        F  0.64237164  0.25502463  0.87803829    -0.23200
C761        C  0.76280995  0.22636896  0.56863268    -0.06100
C762        C  0.76879443  0.25255030  0.57931120    -0.00100
C763        C  0.74957477  0.25664604  0.62260439    -0.08700
C764        C  0.72534898  0.23432104  0.65421376    -0.06100
C765        C  0.72000721  0.20819514  0.64417050    -0.00100
C766        C  0.73867435  0.20393189  0.60042695    -0.08600
C767        C  0.73224202  0.17584193  0.58673920     0.61800
H768        H  0.77783790  0.22378088  0.53520903     0.12500
H769        H  0.71100318  0.23728547  0.68770709     0.12500
C770        C  0.75477864  0.28445933  0.63558169     0.62000
F771        F  0.74531425  0.17511591  0.54008902    -0.23200
F772        F  0.67939129  0.15462865  0.59294296    -0.20500
F773        F  0.76571371  0.17084851  0.61425323    -0.20200
F774        F  0.72670184  0.29051304  0.60340815    -0.20200
F775        F  0.80839858  0.30537208  0.63563293    -0.20600
F776        F  0.73426025  0.28408987  0.67975160    -0.23200
C777        C  0.02139015  0.33428991  0.50681111    -0.06100
C778        C  0.04796588  0.36293583  0.49596330    -0.00100
C779        C  0.01751333  0.37199444  0.97285137    -0.08700
C780        C  0.96110772  0.35604392  0.97734990    -0.06100
C781        C  0.93343790  0.32918953  0.49816003    -0.00100
C782        C  0.96548537  0.31671578  0.50515290    -0.08600
C783        C  0.94528320  0.28555084  0.51182618     0.61800
H784        H  0.04514526  0.32507754  0.51569661     0.12500
H785        H  0.93798448  0.36455474  0.96311169     0.12500
C786        C  0.03965555  0.39622862  0.93864377     0.62000
F787        F  0.97739075  0.27829027  0.48664544    -0.23200
F788        F  0.89314629  0.26712682  0.99054554    -0.20500
F789        F  0.94899695  0.28075955  0.55892933    -0.20200
F790        F  0.08879072  0.40255395  0.92039525    -0.20200
F791        F  0.04263137  0.42128176  0.46963987    -0.20600
F792        F  0.00495183  0.38908485  0.90057703    -0.23200
C793        C  0.69669015  0.30757198  0.51065642    -0.06100
C794        C  0.75178739  0.32425882  0.52028417    -0.00100
C795        C  0.77416773  0.35372846  0.03718071    -0.08700
C796        C  0.74093287  0.36530700  0.03353557    -0.06100
C797        C  0.68293423  0.34705921  0.52092084    -0.00100
C798        C  0.66122452  0.31757839  0.51422494    -0.08600
C799        C  0.60211772  0.29489600  0.51115873     0.61800
H800        H  0.67952456  0.28573768  0.50174883     0.12500
H801        H  0.75749350  0.38674614  0.04516983     0.12500
C802        C  0.82588069  0.37094440  0.06553098     0.62000
F803        F  0.59230079  0.28480009  0.96854575    -0.23200
F804        F  0.57069844  0.30615345  0.02462013    -0.20500
F805        F  0.59231352  0.27327544  0.54106438    -0.20200
F806        F  0.86567049  0.39089120  0.03716679    -0.20200
F807        F  0.83994050  0.35178039  0.58748478    -0.20600
F808        F  0.80867730  0.37894786  0.61003263    -0.23200
C809        C  0.86751800  0.81216332  0.99805213     0.86200
C810        C  0.84760839  0.79184417  0.03973164    -0.54000
C811        C  0.79345312  0.77459163  0.04158505     0.09100
C812        C  0.76302036  0.77998379  0.00305026     0.20100
C813        C  0.84103985  0.79605011  0.45885367    -0.54800
C814        C  0.78677482  0.77768152  0.46099302     0.09200
C815        C  0.83823141  0.82847339  0.00424832    -0.54300
C816        C  0.78200451  0.81332046  0.51269227     0.09800
H817        H  0.87417396  0.79099138  0.06565310     0.14300
H818        H  0.71959193  0.76526500  0.00669229     0.00100
H819        H  0.86527785  0.79764631  0.42857682     0.14600
H820        H  0.85896341  0.85102745  0.00466801     0.14400
C821        C  0.10499210  0.87909727  0.00432032     0.86200
C822        C  0.13205664  0.87140970  0.46675087    -0.54000
C823        C  0.18606496  0.88240904  0.47244119     0.09100
C824        C  0.20895183  0.90116454  0.01429709     0.20100
C825        C  0.12193257  0.87153833  0.05057750    -0.54800
C826        C  0.17582189  0.88152495  0.05514851     0.09200
C827        C  0.13651949  0.91125221  0.00691869    -0.54300
C828        C  0.19076668  0.92291642  0.01179112     0.09800
H829        H  0.10971926  0.85773904  0.43718562     0.14300
H830        H  0.25301400  0.91160151  0.01758059     0.00100
H831        H  0.09308375  0.85934991  0.07733658     0.14600
H832        H  0.11839521  0.92406973  0.00665504     0.14400
C833        C  0.29850466  0.58714803  0.00272045     0.86200
C834        C  0.34005762  0.59613205  0.04322063    -0.54000
C835        C  0.37405694  0.58607081  0.03922418     0.09100
C836        C  0.36268071  0.56695854  0.99573653     0.20100
C837        C  0.33482497  0.59487623  0.45192575    -0.54800
C838        C  0.36724979  0.58355106  0.44873471     0.09200
C839        C  0.26951274  0.55485887  0.00266143    -0.54300
C840        C  0.30267580  0.54420565  0.99849182     0.09800
H841        H  0.34432910  0.60995895  0.07219731     0.14300
H842        H  0.38899549  0.55791348  0.99407980     0.00100
H843        H  0.33716950  0.61019736  0.42745739     0.14600
H844        H  0.22621729  0.54151565  0.00642977     0.14400
C845        C  0.08439342  0.63999270  0.50129815     0.86200
C846        C  0.10738152  0.66386112  0.04301430    -0.54000
C847        C  0.16213912  0.68100867  0.04400849     0.09100
C848        C  0.18993799  0.67112455  0.50379469     0.20100
C849        C  0.10974595  0.65791457  0.45715522    -0.54800
C850        C  0.16488169  0.67423259  0.45803986     0.09200
C851        C  0.11278707  0.62333607  0.50821981    -0.54300
C852        C  0.16757840  0.63926482  0.50851655     0.09800
H853        H  0.08214888  0.66558961  0.06938422     0.14300
H854        H  0.23457579  0.68406784  0.50476467     0.00100
H855        H  0.08556119  0.65879222  0.42883602     0.14600
H856        H  0.09176036  0.60076222  0.51224552     0.14400
C857        C  0.84448236  0.57575060  0.00037358     0.86200
C858        C  0.82279815  0.57940801  0.45897785    -0.54000
C859        C  0.76817340  0.56615891  0.45428748     0.09100
C860        C  0.73890624  0.54902827  0.99672028     0.20100
C861        C  0.81822216  0.58253813  0.04152255    -0.54800
C862        C  0.76347400  0.56968848  0.03892286     0.09200
C863        C  0.81701864  0.54339960  0.00278781    -0.54300
C864        C  0.76180817  0.52932316  0.00090377     0.09800
H865        H  0.84998393  0.59417986  0.43314813     0.14300
H866        H  0.69457296  0.53780281  0.99631553     0.00100
H867        H  0.84128166  0.59679486  0.07021442     0.14600
H868        H  0.83651964  0.53010581  0.50955230     0.14400
C869        C  0.64889245  0.86311469  0.01591822     0.86200
C870        C  0.60828241  0.85701546  0.05522234    -0.54000
C871        C  0.57605245  0.86782062  0.04840756     0.09100
C872        C  0.58962317  0.88565046  0.00384326     0.20100
C873        C  0.61381920  0.85435618  0.47129682    -0.54800
C874        C  0.58216804  0.86577607  0.46404321     0.09200
C875        C  0.68129770  0.89555129  0.01340184    -0.54300
C876        C  0.65058140  0.90734421  0.00667736     0.09800
H877        H  0.60452084  0.84452707  0.08571271     0.14300
H878        H  0.56464889  0.89539382  0.00088020     0.00100
H879        H  0.61833611  0.84104630  0.44629981     0.14600
H880        H  0.72469399  0.90860962  0.01503037     0.14400
O881        O  0.39834469  0.85700236  0.31412571    -0.82100
C882        C  0.25686517  0.76445806  0.19596791     0.97300
O883        O  0.29433480  0.76676027  0.22155879    -0.71200
O884        O  0.38412395  0.81305988  0.19969409    -0.74800
Al885      Al  0.34908795  0.79730523  0.25767795     1.49000
C886        C  0.41583571  0.83894956  0.19295198     0.92500
O887        O  0.32478811  0.85850290  0.20434091    -0.81000
O888        O  0.24846883  0.81992008  0.31826183    -0.74600
Al889      Al  0.35906105  0.85546961  0.25910112     1.90100
O890        O  0.24220546  0.82762946  0.22400315    -0.73600
O891        O  0.23607152  0.76998317  0.30061246    -0.73500
O892        O  0.23754314  0.77992832  0.20457301    -0.79100
O893        O  0.31773487  0.77921772  0.31596653    -0.77300
O894        O  0.31830830  0.81791103  0.25958859    -1.13500
O895        O  0.41069106  0.82288465  0.29254062    -0.72700
C896        C  0.42260994  0.84375267  0.31880655     0.98000
C897        C  0.27484086  0.84781711  0.19864818     0.94400
Al898      Al  0.24700783  0.80083083  0.26174647     1.55600
O899        O  0.41323250  0.85706019  0.21822414    -0.77300
C900        C  0.26792602  0.76566520  0.32448153     0.98600
C901        C  0.27408361  0.84620645  0.32469767     0.93500
O902        O  0.31390440  0.86212683  0.29954649    -0.82600
O903        O  0.56128424  0.60211287  0.30681984    -0.82100
C904        C  0.69943196  0.68821625  0.18255735     0.97300
O905        O  0.66280913  0.68749292  0.20760875    -0.71200
O906        O  0.57008022  0.64170811  0.19091836    -0.74800
Al907      Al  0.60909841  0.65923100  0.24677380     1.49000
C908        C  0.53740698  0.61580642  0.18442050     0.92500
O909        O  0.62399119  0.59389789  0.19599102    -0.81000
O910        O  0.70981285  0.63600258  0.30460146    -0.74600
Al911      Al  0.59514673  0.60022377  0.25117166     1.90100
O912        O  0.70922120  0.62407947  0.21105096    -0.73600
O913        O  0.72404390  0.68552103  0.28586361    -0.73500
O914        O  0.71659821  0.67195176  0.19068229    -0.79100
O915        O  0.64512019  0.67933944  0.30241028    -0.77300
O916        O  0.63779789  0.63747859  0.24867843    -1.13500
O917        O  0.54861113  0.63604849  0.28549363    -0.72700
C918        C  0.53828027  0.61594028  0.31224120     0.98000
C919        C  0.67304315  0.60313605  0.18843295     0.94400
Al920      Al  0.70886250  0.65306264  0.24809793     1.55600
O921        O  0.53945994  0.59829997  0.21107274    -0.77300
C922        C  0.69520147  0.69203559  0.30990460     0.98600
C923        C  0.68415330  0.61031466  0.31423520     0.93500
O924        O  0.64166101  0.59384559  0.29137765    -0.82600
C925        C  0.54922709  0.87492448  0.12735078    -0.06100
C926        C  0.53295401  0.86259449  0.08253966    -0.00100
C927        C  0.47758558  0.84305804  0.07370587    -0.08700
C928        C  0.44063587  0.83601841  0.11071708    -0.06100
C929        C  0.45703653  0.84822171  0.15559701    -0.00100
C930        C  0.51222970  0.86819738  0.16417943    -0.08600
C931        C  0.53254877  0.88151019  0.21243755     0.61800
H932        H  0.59171909  0.88955678  0.13344563     0.12500
H933        H  0.39831536  0.82086937  0.10493799     0.12500
C934        C  0.45742257  0.82926348  0.02588747     0.62000
F935        F  0.58813971  0.89789219  0.21420543    -0.23200
F936        F  0.51649049  0.86080611  0.24576810    -0.20500
F937        F  0.51224203  0.89855461  0.22356145    -0.20200
F938        F  0.47615002  0.82049138  0.51245160    -0.20200
F939        F  0.47014101  0.85829537  0.49446591    -0.20600
F940        F  0.40258157  0.81022602  0.02563610    -0.23200
C941        C  0.53725787  0.88190655  0.40862715    -0.06100
C942        C  0.54536621  0.85993355  0.42229460    -0.00100
C943        C  0.51374242  0.83316767  0.39940145    -0.08700
C944        C  0.47422645  0.82959959  0.36712025    -0.06100
C945        C  0.46483907  0.85112914  0.35522067    -0.00100
C946        C  0.49716969  0.87800333  0.37613385    -0.08600
C947        C  0.48980639  0.90248527  0.36476600     0.61800
H948        H  0.56216839  0.90248207  0.42427973     0.12500
H949        H  0.44952950  0.80925104  0.35048683     0.12500
C950        C  0.51944118  0.80775408  0.40722969     0.62000
F951        F  0.52780877  0.92709346  0.38720181    -0.23200
F952        F  0.43952251  0.89659988  0.37927485    -0.20500
F953        F  0.49471823  0.90715999  0.31689981    -0.20200
F954        F  0.51755191  0.80241753  0.45429224    -0.20200
F955        F  0.56691894  0.81226215  0.38784381    -0.20600
F956        F  0.47827293  0.78346351  0.38636737    -0.23200
C957        C  0.76686883  0.60473180  0.41405497    -0.06100
C958        C  0.74407403  0.57567981  0.41768472    -0.00100
C959        C  0.70266764  0.55778677  0.38570139    -0.08700
C960        C  0.68299885  0.56985472  0.35374903    -0.06100
C961        C  0.70501879  0.59917987  0.35126700    -0.00100
C962        C  0.74827872  0.61692305  0.38232321    -0.08600
C963        C  0.77754811  0.64874157  0.38135711     0.61800
H964        H  0.80026372  0.61819728  0.43707587     0.12500
H965        H  0.65113437  0.55634327  0.32936711     0.12500
C966        C  0.68272717  0.52664293  0.38226989     0.62000
F967        F  0.74137642  0.65785824  0.38592764    -0.23200
F968        F  0.80511416  0.65746945  0.33942853    -0.20500
F969        F  0.81489105  0.66130440  0.41748839    -0.20200
F970        F  0.65443911  0.51312215  0.42206462    -0.20200
F971        F  0.72611998  0.52288902  0.37734892    -0.20600
F972        F  0.64901998  0.51406496  0.34381065    -0.23200
C973        C  0.73891658  0.56914010  0.12280531    -0.06100
C974        C  0.73237482  0.57474325  0.07591546    -0.00100
C975        C  0.70126009  0.58740012  0.06675893    -0.08700
C976        C  0.67953071  0.59460840  0.10477710    -0.06100
C977        C  0.68888259  0.59034385  0.15112808    -0.00100
C978        C  0.71657803  0.57619563  0.16063626    -0.08600
C979        C  0.72105013  0.56801060  0.21039369     0.61800
H980        H  0.76306069  0.55986560  0.12980017     0.12500
H981        H  0.65732888  0.60512266  0.09886214     0.12500
C982        C  0.69523705  0.59607025  0.01811816     0.62000
F983        F  0.74473657  0.55181586  0.21150578    -0.23200
F984        F  0.67014032  0.55250011  0.22944728    -0.20500
F985        F  0.75164643  0.59177263  0.23787421    -0.20200
F986        F  0.66360047  0.56815074  0.48851379    -0.20200
F987        F  0.73810217  0.61079926  0.50235716    -0.20600
F988        F  0.66611367  0.60951594  0.01794491    -0.23200
C989        C  0.73216482  0.98374886  0.46373471    -0.06100
C990        C  0.72857181  0.49791033  0.00008346    -0.00100
C991        C  0.69901761  0.98269590  0.04197481    -0.08700
C992        C  0.67139046  0.95309365  0.04079035    -0.06100
C993        C  0.67511091  0.93827366  0.00224030    -0.00100
C994        C  0.70528259  0.95417378  0.46228615    -0.08600
C995        C  0.70905158  0.93931789  0.41852031     0.61800
H996        H  0.75699864  0.99575034  0.43452381     0.12500
H997        H  0.64828723  0.94121955  0.07088045     0.12500
C998        C  0.69548099  0.49636595  0.08390272     0.62000
F999        F  0.73760766  0.95801685  0.38311670    -0.23200
F1000       F  0.65810440  0.92068373  0.40140178    -0.20500
F1001       F  0.73464183  0.92481690  0.42893998    -0.20200
F1002       F  0.66980682  0.51102209  0.07520533    -0.20200
F1003       F  0.74721402  0.51452863  0.10006557    -0.20600
F1004       F  0.67023552  0.97930902  0.12219151    -0.23200
C1005       C  0.23234132  0.70647793  0.10550697    -0.06100
C1006       C  0.19010937  0.70467322  0.07885391    -0.00100
C1007       C  0.17353960  0.72429785  0.08788474    -0.08700
C1008       C  0.19491390  0.74246248  0.12721840    -0.06100
C1009       C  0.23570934  0.74358836  0.15570152    -0.00100
C1010       C  0.25618445  0.72572372  0.14343382    -0.08600
C1011       C  0.30282468  0.72647133  0.16948391     0.61800
H1012       H  0.24597131  0.69217300  0.09673967     0.12500
H1013       H  0.18021058  0.75648091  0.13502937     0.12500
C1014       C  0.13527362  0.72757074  0.05576505     0.62000
F1015       F  0.31627090  0.70788346  0.15028724    -0.23200
F1016       F  0.28920816  0.71922575  0.21599570    -0.20500
F1017       F  0.34809632  0.75302294  0.16692893    -0.20200
F1018       F  0.08339816  0.71197542  0.07264187    -0.20200
F1019       F  0.13684395  0.71915908  0.01010307    -0.20600
F1020       F  0.14946316  0.75546865  0.05419156    -0.23200
C1021       C  0.23330138  0.72394533  0.43883301    -0.06100
C1022       C  0.19620738  0.69657555  0.42233205    -0.00100
C1023       C  0.18661206  0.69213631  0.37305918    -0.08700
C1024       C  0.20921262  0.71546416  0.34314563    -0.06100
C1025       C  0.24544436  0.74274476  0.35966164    -0.00100
C1026       C  0.25889343  0.74707971  0.40821585    -0.08600
C1027       C  0.29791881  0.77616646  0.42792616     0.61800
H1028       H  0.24077295  0.72733418  0.47632265     0.12500
H1029       H  0.20011641  0.71216946  0.30577824     0.12500
C1030       C  0.15516698  0.66335149  0.34980428     0.62000
F1031       F  0.30427317  0.77592635  0.47617014    -0.23200
F1032       F  0.27892686  0.79389838  0.41845783    -0.20500
F1033       F  0.34787553  0.78660266  0.40756561    -0.20200
F1034       F  0.14834894  0.64215975  0.37914325    -0.20200
F1035       F  0.18270353  0.66239855  0.31068289    -0.20600
F1036       F  0.10536511  0.65838004  0.33554769    -0.23200
C1037       C  0.99347768  0.63509164  0.51446480    -0.06100
C1038       C  0.02190184  0.62237308  0.49843150    -0.00100
C1039       C  0.99254059  0.59671883  0.97812246    -0.08700
C1040       C  0.93598742  0.58140451  0.98337498    -0.06100
C1041       C  0.90596896  0.59140258  0.50590985    -0.00100
C1042       C  0.93684198  0.62099673  0.51669861    -0.08600
C1043       C  0.91343163  0.63906439  0.53171229     0.61800
H1044       H  0.01619163  0.65705290  0.52433141     0.12500
H1045       H  0.91420159  0.56008992  0.96990446     0.12500
C1046       C  0.01563057  0.58312103  0.94671279     0.62000
F1047       F  0.94828789  0.66707340  0.52146101    -0.23200
F1048       F  0.92080402  0.65174127  0.06159450    -0.20500
F1049       F  0.86594717  0.63143179  0.50854150    -0.20200
F1050       F  0.01977799  0.56311016  0.97169490    -0.20200
F1051       F  0.06183970  0.60002941  0.42679578    -0.20600
F1052       F  0.98167762  0.56996437  0.90857976    -0.23200
C1053       C  0.50070136  0.62726514  0.11469840    -0.06100
C1054       C  0.49614520  0.60650498  0.14566501    -0.00100
C1055       C  0.45248190  0.57836110  0.13892658    -0.08700
C1056       C  0.41457583  0.57258505  0.10273411    -0.06100
C1057       C  0.41843338  0.59367639  0.07354540    -0.00100
C1058       C  0.46286904  0.62143597  0.07871225    -0.08600
C1059       C  0.47158071  0.64485686  0.04579573     0.61800
H1060       H  0.53429635  0.64846705  0.11898743     0.12500
H1061       H  0.38057765  0.55155767  0.09754153     0.12500
C1062       C  0.44473457  0.55435200  0.16965636     0.62000
F1063       F  0.43070838  0.65055272  0.05037860    -0.23200
F1064       F  0.47302602  0.63707223  0.99984134    -0.20500
F1065       F  0.52263658  0.66687429  0.54962490    -0.20200
F1066       F  0.43879141  0.55991017  0.21613924    -0.20200
F1067       F  0.48862584  0.55095244  0.16534052    -0.20600
F1068       F  0.39936980  0.52911284  0.15691780    -0.23200
C1069       C  0.44678103  0.60378696  0.33268643    -0.06100
C1070       C  0.49585587  0.60746720  0.34782594    -0.00100
C1071       C  0.50290561  0.60314975  0.39546389    -0.08700
C1072       C  0.45939749  0.59470863  0.42637608    -0.06100
C1073       C  0.40952170  0.59095537  0.41161775    -0.00100
C1074       C  0.40285308  0.59482831  0.36303904    -0.08600
C1075       C  0.35093448  0.58975544  0.34101042     0.61800
H1076       H  0.44261700  0.60752149  0.29599378     0.12500
H1077       H  0.46513031  0.59192320  0.46300760     0.12500
C1078       C  0.55702505  0.60910802  0.41411886     0.62000
F1079       F  0.34686286  0.58130731  0.29436790    -0.23200
F1080       F  0.35010689  0.61439640  0.34252947    -0.20500
F1081       F  0.30672739  0.56880293  0.36347627    -0.20200
F1082       F  0.59635718  0.63635027  0.40351503    -0.20200
F1083       F  0.57019773  0.59067546  0.39394319    -0.20600
F1084       F  0.55668327  0.60622089  0.46244806    -0.23200
C1085       C  0.24923505  0.60567195  0.54334203    -0.06100
C1086       C  0.25969008  0.59881206  0.00554617    -0.00100
C1087       C  0.23044522  0.60014348  0.96598238    -0.08700
C1088       C  0.20646064  0.61666335  0.96925877    -0.06100
C1089       C  0.20077241  0.62589981  0.50772976    -0.00100
C1090       C  0.21880427  0.61877719  0.54860673    -0.08600
C1091       C  0.20618142  0.62349154  0.59853356     0.61800
H1092       H  0.26263322  0.60052180  0.57508978     0.12500
H1093       H  0.18727343  0.61900722  0.93835796     0.12500
C1094       C  0.21991022  0.58388849  0.92000222     0.62000
F1095       F  0.19253069  0.60628777  0.13010918    -0.23200
F1096       F  0.17747628  0.63938399  0.10419846    -0.20500
F1097       F  0.25367952  0.64156172  0.62204066    -0.20200
F1098       F  0.23078803  0.56258972  0.92229079    -0.20200
F1099       F  0.25654111  0.60292352  0.37934506    -0.20600
F1100       F  0.16997752  0.57406699  0.39780394    -0.23200
C1101       C  0.21310261  0.88315195  0.38977380    -0.06100
C1102       C  0.21762249  0.87688566  0.43672522    -0.00100
C1103       C  0.24540262  0.86248288  0.44651072    -0.08700
C1104       C  0.26457822  0.85358591  0.40866585    -0.06100
C1105       C  0.25720769  0.85856892  0.36209359    -0.00100
C1106       C  0.23251790  0.87423828  0.35214112    -0.08600
C1107       C  0.22500236  0.88054552  0.30189810     0.61800
H1108       H  0.19239707  0.89434878  0.38272348     0.12500
H1109       H  0.28491110  0.84214561  0.41496353     0.12500
C1110       C  0.25288256  0.85504724  0.49583968     0.62000
F1111       F  0.19816914  0.89514986  0.29976342    -0.23200
F1112       F  0.19538816  0.85571652  0.27665377    -0.20500
F1113       F  0.27465949  0.89667873  0.28109613    -0.20200
F1114       F  0.22093462  0.84644094  0.01954736    -0.20200
F1115       F  0.29836704  0.88835194  0.01289469    -0.20600
F1116       F  0.27781720  0.83943665  0.49628817    -0.23200
C1117       C  0.25185425  0.89207417  0.10931241    -0.06100
C1118       C  0.19940560  0.87256390  0.09339219    -0.00100
C1119       C  0.17382374  0.84456455  0.11087362    -0.08700
C1120       C  0.19991467  0.83847046  0.14611600    -0.06100
C1121       C  0.25230028  0.85780552  0.16167387    -0.00100
C1122       C  0.27962100  0.88505104  0.14195301    -0.08600
C1123       C  0.33753678  0.90676156  0.15471997     0.61800
H1124       H  0.27180510  0.91298726  0.09516898     0.12500
H1125       H  0.17947932  0.81761308  0.16080453     0.12500
C1126       C  0.12142525  0.81982219  0.09149549     0.62000
F1127       F  0.37102856  0.89708003  0.14106502    -0.23200
F1128       F  0.34228979  0.91191059  0.20268172    -0.20500
F1129       F  0.35505313  0.93205562  0.13248857    -0.20200
F1130       F  0.10912882  0.82001771  0.55045501    -0.20200
F1131       F  0.07793372  0.81887401  0.11338847    -0.20600
F1132       F  0.11844486  0.79452380  0.09975382    -0.23200
C1133       C  0.25962116  0.00037865  0.04622019    -0.06100
C1134       C  0.28203454  0.51343863  0.00146120    -0.00100
C1135       C  0.27675000  0.99537891  0.46262845    -0.08700
C1136       C  0.25139265  0.96619699  0.46940951    -0.06100
C1137       C  0.22758660  0.95391290  0.01224699    -0.00100
C1138       C  0.23247101  0.97099891  0.05157656    -0.08600
C1139       C  0.20859417  0.95822532  0.09879613     0.61800
H1140       H  0.26007850  0.51300051  0.07347212     0.12500
H1141       H  0.24681774  0.95234259  0.44027911     0.12500
C1142       C  0.30201425  0.50729354  0.41378541     0.62000
F1143       F  0.15308844  0.94288716  0.09563607    -0.23200
F1144       F  0.22313821  0.97858085  0.13359258    -0.21700
F1145       F  0.22680283  0.94073970  0.11230673    -0.20200
F1146       F  0.35652037  0.52656240  0.41646040    -0.20200
F1147       F  0.27525012  0.52009906  0.39731201    -0.20600
F1148       F  0.28730389  0.98644391  0.38150718    -0.23200
C1149       C  0.79158256  0.74596128  0.40062403    -0.06100
C1150       C  0.75943707  0.75489536  0.42329166    -0.00100
C1151       C  0.70607951  0.74370844  0.40580105    -0.08700
C1152       C  0.68613632  0.72217969  0.37102544    -0.06100
C1153       C  0.71961075  0.71458335  0.34731598    -0.00100
C1154       C  0.77502932  0.72924424  0.35961413    -0.08600
C1155       C  0.81811924  0.72986888  0.32822819     0.61800
H1156       H  0.83169925  0.75322231  0.41367692     0.12500
H1157       H  0.64422978  0.71210453  0.36058566     0.12500
C1158       C  0.67071560  0.75517094  0.42005670     0.62000
F1159       F  0.86949616  0.74997174  0.34306157    -0.23200
F1160       F  0.81176364  0.73641318  0.28278796    -0.20500
F1161       F  0.81486405  0.70432249  0.32826692    -0.20200
F1162       F  0.70125258  0.78406223  0.42464794    -0.20200
F1163       F  0.64489259  0.74308181  0.46158500    -0.20600
F1164       F  0.63163022  0.74914013  0.38629051    -0.23200
C1165       C  0.75576494  0.72523268  0.06584099    -0.06100
C1166       C  0.76732351  0.75241891  0.07752986    -0.00100
C1167       C  0.75638896  0.75825839  0.12340519    -0.08700
C1168       C  0.73431680  0.73658187  0.15635349    -0.06100
C1169       C  0.72358100  0.70950112  0.14518289    -0.00100
C1170       C  0.73404332  0.70349396  0.09909013    -0.08600
C1171       C  0.72073912  0.67418462  0.08466788     0.61800
H1172       H  0.76459142  0.72130283  0.03050693     0.12500
H1173       H  0.72590709  0.74074145  0.19168625     0.12500
C1174       C  0.76813257  0.78726658  0.13761827     0.62000
F1175       F  0.72879162  0.67229700  0.03708339    -0.23200
F1176       F  0.66730830  0.65508964  0.09431549    -0.20500
F1177       F  0.75316268  0.66705882  0.10910403    -0.20200
F1178       F  0.74004010  0.79506301  0.10857420    -0.20200
F1179       F  0.82265978  0.80630024  0.13402347    -0.20600
F1180       F  0.75297496  0.78819968  0.18348959    -0.23200
C1181       C  0.01678126  0.83400931  0.00581690    -0.06100
C1182       C  0.04355495  0.86297885  0.99701135    -0.00100
C1183       C  0.01262713  0.87504392  0.47965639    -0.08700
C1184       C  0.95607110  0.85910137  0.48446711    -0.06100
C1185       C  0.92907165  0.82875735  0.99407911    -0.00100
C1186       C  0.96108872  0.81626706  0.00074545    -0.08600
C1187       C  0.94101377  0.78487414  0.00235862     0.61800
H1188       H  0.04030231  0.82462802  0.01474757     0.12500
H1189       H  0.93327100  0.86844017  0.47317875     0.12500
C1190       C  0.03500756  0.90043690  0.44795678     0.62000
F1191       F  0.97349450  0.77920224  0.97433228    -0.23200
F1192       F  0.88614882  0.76872867  0.49482943    -0.20500
F1193       F  0.94438230  0.77758000  0.04802303    -0.20200
F1194       F  0.08251128  0.90608991  0.42687198    -0.20200
F1195       F  0.04129611  0.92193099  0.97201233    -0.20600
F1196       F  0.99904107  0.89541028  0.41171570    -0.23200
C1197       C  0.69311721  0.80790371  0.01299759    -0.06100
C1198       C  0.74858825  0.82442084  0.02111642    -0.00100
C1199       C  0.76445939  0.85178835  0.54564460    -0.08700
C1200       C  0.73202527  0.86379009  0.54204696    -0.06100
C1201       C  0.68083390  0.84803570  0.02303464    -0.00100
C1202       C  0.65831137  0.81839609  0.01689682    -0.08600
C1203       C  0.59900021  0.79581488  0.01529142     0.61800
H1204       H  0.67530744  0.78596364  0.00471941     0.12500
H1205       H  0.74804277  0.88481671  0.55592694     0.12500
C1206       C  0.81381336  0.86732939  0.57727526     0.62000
F1207       F  0.58276848  0.78393565  0.47390010    -0.23200
F1208       F  0.56297370  0.80601372  0.53011373    -0.20500
F1209       F  0.58922240  0.77599304  0.04903232    -0.20200
F1210       F  0.85357103  0.89062126  0.55435719    -0.20200
F1211       F  0.83770554  0.85197758  0.08699382    -0.20600
F1212       F  0.81003398  0.88097536  0.10793051    -0.23200
C1213       C  0.86700549  0.81421317  0.50241519     0.86200
C1214       C  0.84762681  0.79460596  0.54517363    -0.54000
C1215       C  0.79348605  0.77697827  0.54713303     0.09100
C1216       C  0.76258629  0.78133363  0.50777122     0.20100
C1217       C  0.84141293  0.79487364  0.95381238    -0.54800
C1218       C  0.78696157  0.77685724  0.95562543     0.09200
C1219       C  0.83677066  0.83019154  0.50719872    -0.54300
C1220       C  0.78348807  0.81211484  0.00947361     0.09800
H1221       H  0.87470333  0.79395537  0.57082340     0.14300
H1222       H  0.71921005  0.76646641  0.51165559     0.00100
H1223       H  0.86565022  0.79698045  0.92326890     0.14600
H1224       H  0.85667226  0.85280717  0.50760017     0.14400
C1225       C  0.10518240  0.87963183  0.50521735     0.86200
C1226       C  0.13157643  0.87118975  0.96521788    -0.54000
C1227       C  0.18577856  0.88239553  0.96987086     0.09100
C1228       C  0.20894649  0.90115815  0.51675149     0.20100
C1229       C  0.12122570  0.87208143  0.55203982    -0.54800
C1230       C  0.17494607  0.88168079  0.55747688     0.09200
C1231       C  0.13731166  0.91173706  0.50740912    -0.54300
C1232       C  0.19137812  0.92314098  0.51310276     0.09800
H1233       H  0.10854736  0.85718106  0.93620002     0.14300
H1234       H  0.25307358  0.91105043  0.52033588     0.00100
H1235       H  0.09168790  0.86033688  0.57849197     0.14600
H1236       H  0.11974797  0.92479563  0.50622984     0.14400
C1237       C  0.29849645  0.58621927  0.49598110     0.86200
C1238       C  0.34004918  0.59589868  0.53655320    -0.54000
C1239       C  0.37322565  0.58532293  0.53427115     0.09100
C1240       C  0.36194770  0.56557053  0.49183264     0.20100
C1241       C  0.33484912  0.59668240  0.95875597    -0.54800
C1242       C  0.36758553  0.58565037  0.95372909     0.09200
C1243       C  0.26905713  0.55398618  0.49740941    -0.54300
C1244       C  0.30192189  0.54314282  0.49467152     0.09800
H1245       H  0.34425140  0.61028742  0.56458289     0.14300
H1246       H  0.38803514  0.55636381  0.49134307     0.00100
H1247       H  0.33678535  0.61258193  0.93620476     0.14600
H1248       H  0.22572594  0.54083607  0.50123014     0.14400
C1249       C  0.08531465  0.64200498  0.00232241     0.86200
C1250       C  0.10754912  0.66161201  0.54260042    -0.54000
C1251       C  0.16235592  0.67851463  0.54305055     0.09100
C1252       C  0.19073903  0.67344788  0.00566414     0.20100
C1253       C  0.11098615  0.65965558  0.95812425    -0.54800
C1254       C  0.16605635  0.67596291  0.95903221     0.09200
C1255       C  0.11405077  0.62561155  0.01065406    -0.54300
C1256       C  0.16884796  0.64163315  0.01147694     0.09800
H1257       H  0.08321906  0.66364280  0.56956798     0.14300
H1258       H  0.23533645  0.68654024  0.00703103     0.00100
H1259       H  0.08664800  0.66057429  0.93015418     0.14600
H1260       H  0.09319972  0.60310373  0.01532407     0.14400
C1261       C  0.84336840  0.57376133  0.50459266     0.86200
C1262       C  0.82141977  0.58025530  0.95521082    -0.54000
C1263       C  0.76653486  0.56693767  0.95279969     0.09100
C1264       C  0.73799228  0.54745601  0.49674785     0.20100
C1265       C  0.81494556  0.57968319  0.54494915    -0.54800
C1266       C  0.76040523  0.56725390  0.54024935     0.09200
C1267       C  0.81537870  0.54136399  0.50533104    -0.54300
C1268       C  0.76026311  0.52750065  0.50151512     0.09800
H1269       H  0.84722291  0.59441320  0.92807557     0.14300
H1270       H  0.69372969  0.53622691  0.49401658     0.00100
H1271       H  0.83570358  0.59177742  0.57601719     0.14600
H1272       H  0.83844532  0.53226357  0.00642617     0.14400
C1273       C  0.64692986  0.86356055  0.51738191     0.86200
C1274       C  0.60723333  0.85871235  0.55691987    -0.54000
C1275       C  0.57599689  0.87005519  0.54934890     0.09100
C1276       C  0.58923535  0.88682765  0.50378244     0.20100
C1277       C  0.61676444  0.85467374  0.96937575    -0.54800
C1278       C  0.58431585  0.86572831  0.96272759     0.09200
C1279       C  0.68032171  0.89590941  0.51302565    -0.54300
C1280       C  0.65025517  0.90804186  0.50570680     0.09800
H1281       H  0.60359744  0.84684802  0.58824587     0.14300
H1282       H  0.56527371  0.89709183  0.50011160     0.00100
H1283       H  0.62276156  0.84220088  0.94400266     0.14600
H1284       H  0.72382613  0.90854869  0.51458008     0.14400
O1285       O  0.39568143  0.85542973  0.81673005    -0.82100
C1286       C  0.26183552  0.76402132  0.69180288     0.97300
O1287       O  0.30172760  0.76786820  0.71550315    -0.71200
O1288       O  0.38899077  0.81614141  0.69852059    -0.74800
Al1289     Al  0.35334583  0.79794927  0.75451691     1.49000
C1290       C  0.41984288  0.84232807  0.69458813     0.92500
O1291       O  0.32565556  0.85849864  0.70530958    -0.81000
O1292       O  0.24619401  0.81685038  0.81574745    -0.74600
Al1293     Al  0.35852785  0.85488840  0.76073527     1.90100
O1294       O  0.24308068  0.82548484  0.72126577    -0.73600
O1295       O  0.23922043  0.76833177  0.79725210    -0.73500
O1296       O  0.24059747  0.77843264  0.70158178    -0.79100
O1297       O  0.32135512  0.77759605  0.81080500    -0.77300
O1298       O  0.31981827  0.81716663  0.75816366    -1.13500
O1299       O  0.41266462  0.82339424  0.79187960    -0.72700
C1300       C  0.42204013  0.84316408  0.81998693     0.98000
C1301       C  0.27567203  0.84676689  0.69784507     0.94400
Al1302     Al  0.24832998  0.79885487  0.75892701     1.55600
O1303       O  0.41606215  0.85921140  0.72195516    -0.77300
C1304       C  0.27171161  0.76397300  0.81995963     0.98600
C1305       C  0.27006721  0.84300283  0.82314259     0.93500
O1306       O  0.31056379  0.85966774  0.79963369    -0.82600
O1307       O  0.55530130  0.60020585  0.80610787    -0.82100
C1308       C  0.69296836  0.68611039  0.68002090     0.97300
O1309       O  0.65594821  0.68507803  0.70496363    -0.71200
O1310       O  0.56287887  0.63909499  0.69025713    -0.74800
Al1311     Al  0.60280177  0.65709266  0.74511501     1.49000
C1312       C  0.53057123  0.61317912  0.68361970     0.92500
O1313       O  0.61755994  0.59116201  0.69522083    -0.81000
O1314       O  0.70426123  0.63468793  0.80236144    -0.74600
Al1315     Al  0.58888970  0.59803461  0.75028126     1.90100
O1316       O  0.70268868  0.62175933  0.70944810    -0.73600
O1317       O  0.71837926  0.68392960  0.78163691    -0.73500
O1318       O  0.70937916  0.66939878  0.68720607    -0.79100
O1319       O  0.63996923  0.67779141  0.79999532    -0.77300
O1320       O  0.63144238  0.63534071  0.74683656    -1.13500
O1321       O  0.54322775  0.63433152  0.78492919    -0.72700
C1322       C  0.53310754  0.61439427  0.81200952     0.98000
C1323       C  0.66666337  0.60038697  0.68770017     0.94400
Al1324     Al  0.70252662  0.65104169  0.74528995     1.55600
O1325       O  0.53270093  0.59561256  0.71008374    -0.77300
C1326       C  0.69031742  0.69080311  0.80592988     0.98600
C1327       C  0.67844966  0.60916290  0.81315321     0.93500
O1328       O  0.63585956  0.59234668  0.79074958    -0.82600
C1329       C  0.55232637  0.87780736  0.62910777    -0.06100
C1330       C  0.53449744  0.86657980  0.58374246    -0.00100
C1331       C  0.47840393  0.84964149  0.57441528    -0.08700
C1332       C  0.44242492  0.84311893  0.61171853    -0.06100
C1333       C  0.46042595  0.85318233  0.65728014    -0.00100
C1334       C  0.51604714  0.87160707  0.66629954    -0.08600
C1335       C  0.53718223  0.88384305  0.71503065     0.61800
H1336       H  0.59525067  0.89090843  0.63535449     0.12500
H1337       H  0.39953453  0.82945960  0.60593507     0.12500
C1338       C  0.45606333  0.83713661  0.52630144     0.62000
F1339       F  0.59288814  0.89906097  0.71673544    -0.23200
F1340       F  0.51942244  0.86252693  0.74737941    -0.20500
F1341       F  0.51912136  0.90169142  0.72765006    -0.20200
F1342       F  0.48288790  0.81499466  0.01311982    -0.20200
F1343       F  0.46761872  0.84949628  0.99310993    -0.20600
F1344       F  0.40044305  0.82060648  0.52603978    -0.23200
C1345       C  0.53700689  0.88173636  0.90944696    -0.06100
C1346       C  0.54790863  0.86035969  0.92071292    -0.00100
C1347       C  0.51880053  0.83423492  0.89547446    -0.08700
C1348       C  0.47702657  0.82996266  0.86539921    -0.06100
C1349       C  0.46457085  0.85069663  0.85616823    -0.00100
C1350       C  0.49557278  0.87736652  0.87805960    -0.08600
C1351       C  0.48517789  0.90105593  0.86884238     0.61800
H1352       H  0.56095744  0.90217702  0.92586069     0.12500
H1353       H  0.45331020  0.80977722  0.84800667     0.12500
C1354       C  0.53012893  0.81042350  0.89800639     0.62000
F1355       F  0.52233259  0.92576680  0.89151320    -0.23200
F1356       F  0.43458491  0.89370405  0.88495414    -0.20500
F1357       F  0.48824922  0.90626632  0.82116323    -0.20200
F1358       F  0.52761934  0.80243141  0.94376667    -0.20200
F1359       F  0.57982954  0.81876759  0.87865338    -0.20600
F1360       F  0.49298830  0.78663176  0.87313115    -0.23200
C1361       C  0.76434673  0.60484783  0.91094107    -0.06100
C1362       C  0.74043954  0.57583740  0.91692309    -0.00100
C1363       C  0.69517706  0.55747477  0.88859472    -0.08700
C1364       C  0.67551914  0.56924251  0.85605058    -0.06100
C1365       C  0.69934286  0.59854064  0.85090607    -0.00100
C1366       C  0.74392505  0.61664833  0.88034077    -0.08600
C1367       C  0.77217221  0.64844821  0.87926668     0.61800
H1368       H  0.79977812  0.61869415  0.93152740     0.12500
H1369       H  0.64149193  0.55542087  0.83381934     0.12500
C1370       C  0.66948297  0.52581955  0.89022554     0.62000
F1371       F  0.73518904  0.65703509  0.88385119    -0.23200
F1372       F  0.79961037  0.65742470  0.83736391    -0.20500
F1373       F  0.80932415  0.66127727  0.91546818    -0.20200
F1374       F  0.64060092  0.51562737  0.93116675    -0.20200
F1375       F  0.70879654  0.51881717  0.88789279    -0.20600
F1376       F  0.63431492  0.51256456  0.85288047    -0.23200
C1377       C  0.73664225  0.56777104  0.62425378    -0.06100
C1378       C  0.72785344  0.57165146  0.57690817    -0.00100
C1379       C  0.69410281  0.58273323  0.56709968    -0.08700
C1380       C  0.67103176  0.58944672  0.60476287    -0.06100
C1381       C  0.68295931  0.58717517  0.65138798    -0.00100
C1382       C  0.71481564  0.57539617  0.66176577    -0.08600
C1383       C  0.72524988  0.57075742  0.71225259     0.61800
H1384       H  0.76299918  0.55987138  0.63184807     0.12500
H1385       H  0.64665359  0.59870962  0.59826116     0.12500
C1386       C  0.68782085  0.59120538  0.51830977     0.62000
F1387       F  0.75244517  0.55633957  0.71455239    -0.23200
F1388       F  0.67676252  0.55518762  0.73529219    -0.20500
F1389       F  0.75591902  0.59625359  0.73538632    -0.20200
F1390       F  0.66862884  0.57278864  0.98900519    -0.20200
F1391       F  0.74577680  0.61461110  0.00127220    -0.20600
F1392       F  0.65654412  0.60345219  0.51774178    -0.23200
C1393       C  0.73217157  0.98289196  0.96331731    -0.06100
C1394       C  0.72667011  0.49611482  0.50016058    -0.00100
C1395       C  0.69814849  0.98318673  0.54219833    -0.08700
C1396       C  0.67092716  0.95358920  0.54069747    -0.06100
C1397       C  0.67496094  0.93898542  0.50190651    -0.00100
C1398       C  0.70573591  0.95331214  0.96253540    -0.08600
C1399       C  0.71117957  0.93837127  0.91967044     0.61800
H1400       H  0.75655939  0.99476650  0.93378931     0.12500
H1401       H  0.64769204  0.94155045  0.57061507     0.12500
C1402       C  0.68459453  0.49409489  0.58036264     0.62000
F1403       F  0.73733868  0.95671350  0.88320481    -0.23200
F1404       F  0.66090603  0.91801475  0.90350064    -0.20500
F1405       F  0.74040195  0.92593768  0.93115112    -0.20200
F1406       F  0.65962718  0.50851695  0.56735778    -0.20200
F1407       F  0.73405914  0.51238061  0.60062279    -0.20600
F1408       F  0.66764222  0.97943465  0.62192454    -0.23200
C1409       C  0.23167351  0.70309716  0.60559726    -0.06100
C1410       C  0.19143051  0.70237733  0.57733068    -0.00100
C1411       C  0.17775327  0.72330215  0.58429082    -0.08700
C1412       C  0.20059778  0.74219792  0.62257186    -0.06100
C1413       C  0.23976039  0.74255344  0.65232640    -0.00100
C1414       C  0.25655521  0.72280922  0.64285833    -0.08600
C1415       C  0.29987067  0.72185236  0.67162418     0.61800
H1416       H  0.24282779  0.68757535  0.59865448     0.12500
H1417       H  0.18832875  0.75741536  0.62850513     0.12500
C1418       C  0.14034095  0.72707647  0.55183938     0.62000
F1419       F  0.30771493  0.70035681  0.65697739    -0.23200
F1420       F  0.28529880  0.71747314  0.71849655    -0.20500
F1421       F  0.34838460  0.74678855  0.66688477    -0.20200
F1422       F  0.09027703  0.71567552  0.57240797    -0.20200
F1423       F  0.13479268  0.71474745  0.50809130    -0.20600
F1424       F  0.16061520  0.75538960  0.54460568    -0.23200
C1425       C  0.23688717  0.72479672  0.93657330    -0.06100
C1426       C  0.19762003  0.69737744  0.92190153    -0.00100
C1427       C  0.18747675  0.69178347  0.87274993    -0.08700
C1428       C  0.21224995  0.71423579  0.84110153    -0.06100
C1429       C  0.25006194  0.74159991  0.85596332    -0.00100
C1430       C  0.26402077  0.74694429  0.90428009    -0.08600
C1431       C  0.30582446  0.77614304  0.92169980     0.61800
H1432       H  0.24504182  0.72904779  0.97385813     0.12500
H1433       H  0.20250681  0.71036966  0.80390402     0.12500
C1434       C  0.15220071  0.66244829  0.85222780     0.62000
F1435       F  0.31161369  0.77724327  0.97012363    -0.23200
F1436       F  0.29081061  0.79514109  0.90909715    -0.20500
F1437       F  0.35519321  0.78403298  0.90201760    -0.20200
F1438       F  0.15446286  0.64268623  0.87956344    -0.20200
F1439       F  0.16937084  0.66049537  0.80762649    -0.20600
F1440       F  0.09962964  0.65625260  0.84869270    -0.23200
C1441       C  0.99393159  0.63722610  0.01144020    -0.06100
C1442       C  0.02297719  0.62425882  0.99849721    -0.00100
C1443       C  0.99055593  0.59489268  0.47801828    -0.08700
C1444       C  0.93426002  0.57955872  0.48518459    -0.06100
C1445       C  0.90688666  0.59372845  0.00010516    -0.00100
C1446       C  0.93734180  0.62347601  0.00911105    -0.08600
C1447       C  0.91506347  0.64297615  0.01509462     0.61800
H1448       H  0.01595472  0.65935982  0.02061418     0.12500
H1449       H  0.91173894  0.55850395  0.47059817     0.12500
C1450       C  0.01224468  0.58117634  0.44519882     0.62000
F1451       F  0.94428001  0.66639955  0.98743337    -0.23200
F1452       F  0.90567437  0.63741250  0.57982389    -0.20500
F1453       F  0.86216665  0.63146456  0.00174575    -0.20200
F1454       F  0.01541938  0.56047886  0.46890663    -0.20200
F1455       F  0.06505612  0.60226662  0.92834068    -0.20600
F1456       F  0.97766544  0.56882519  0.40716682    -0.23200
C1457       C  0.49887432  0.62456905  0.61096190    -0.06100
C1458       C  0.49029427  0.60409914  0.64429088    -0.00100
C1459       C  0.44338139  0.57683839  0.63969183    -0.08700
C1460       C  0.40771987  0.57135533  0.60171399    -0.06100
C1461       C  0.41568172  0.59229845  0.57010869    -0.00100
C1462       C  0.46190352  0.61946871  0.57470179    -0.08600
C1463       C  0.47213051  0.64335812  0.54235556     0.61800
H1464       H  0.53451143  0.64523613  0.61422964     0.12500
H1465       H  0.37184169  0.55082841  0.59734547     0.12500
C1466       C  0.42909406  0.55386945  0.67528928     0.62000
F1467       F  0.43451675  0.65111764  0.55035910    -0.23200
F1468       F  0.46895115  0.63519475  0.49593458    -0.20500
F1469       F  0.51963032  0.66956320  0.05503983    -0.20200
F1470       F  0.42586325  0.56334634  0.71972315    -0.20200
F1471       F  0.46765745  0.54627188  0.67509477    -0.20600
F1472       F  0.37990803  0.52996963  0.66531322    -0.23200
C1473       C  0.44397261  0.60479274  0.83547110    -0.06100
C1474       C  0.49216719  0.60684101  0.84891204    -0.00100
C1475       C  0.50044089  0.60282095  0.89639629    -0.08700
C1476       C  0.45861958  0.59586956  0.92868880    -0.06100
C1477       C  0.40935159  0.59352673  0.91563057    -0.00100
C1478       C  0.40213602  0.59809359  0.86738328    -0.08600
C1479       C  0.35184855  0.59634012  0.84766991     0.61800
H1480       H  0.43945261  0.60866425  0.79896149     0.12500
H1481       H  0.46520116  0.59294369  0.96503884     0.12500
C1482       C  0.55409539  0.60727155  0.91331325     0.62000
F1483       F  0.34847570  0.59294365  0.79918946    -0.23200
F1484       F  0.35272514  0.62094226  0.85793359    -0.20500
F1485       F  0.30653301  0.57359806  0.86561597    -0.20200
F1486       F  0.59529318  0.63354092  0.90009462    -0.20200
F1487       F  0.56263912  0.58696437  0.89387147    -0.20600
F1488       F  0.55603515  0.60574900  0.96179589    -0.23200
C1489       C  0.25249281  0.60925045  0.04895497    -0.06100
C1490       C  0.25967471  0.59768551  0.49894784    -0.00100
C1491       C  0.23188177  0.60008700  0.45940834    -0.08700
C1492       C  0.20736517  0.61626426  0.46400668    -0.06100
C1493       C  0.20215203  0.62816530  0.01187598    -0.00100
C1494       C  0.22254221  0.62276073  0.05314678    -0.08600
C1495       C  0.21320759  0.62996297  0.10255636     0.61800
H1496       H  0.26766685  0.60562175  0.08109346     0.12500
H1497       H  0.18945871  0.61969964  0.43326955     0.12500
C1498       C  0.22249561  0.58458137  0.41279516     0.62000
F1499       F  0.18063869  0.59808402  0.62156423    -0.23200
F1500       F  0.17309519  0.63453828  0.60083936    -0.20500
F1501       F  0.26177607  0.65043384  0.12172377    -0.20200
F1502       F  0.22938464  0.56191173  0.41589131    -0.20200
F1503       F  0.25001351  0.60217021  0.88477318    -0.20600
F1504       F  0.16600547  0.57142905  0.90799103    -0.23200
C1505       C  0.20443774  0.87809307  0.88612743    -0.06100
C1506       C  0.21608100  0.87607011  0.93358916    -0.00100
C1507       C  0.24928709  0.86461527  0.94366198    -0.08700
C1508       C  0.26570235  0.85397043  0.90622232    -0.06100
C1509       C  0.25116143  0.85469039  0.85981596    -0.00100
C1510       C  0.22163918  0.86768823  0.84899527    -0.08600
C1511       C  0.20807618  0.87021312  0.79840460     0.61800
H1512       H  0.18041955  0.88740536  0.87837763     0.12500
H1513       H  0.29011931  0.84474310  0.91272189     0.12500
C1514       C  0.26607044  0.86209723  0.99293770     0.62000
F1515       F  0.17640049  0.88214453  0.79543322    -0.23200
F1516       F  0.18043211  0.84391668  0.77721877    -0.20500
F1517       F  0.25502633  0.88691979  0.77399678    -0.20200
F1518       F  0.20340868  0.83918849  0.51647678    -0.20200
F1519       F  0.28454978  0.87917957  0.52194192    -0.20600
F1520       F  0.29529167  0.84870998  0.99352925    -0.23200
C1521       C  0.25052593  0.89198613  0.61222270    -0.06100
C1522       C  0.19806541  0.87247918  0.59603007    -0.00100
C1523       C  0.17262621  0.84435383  0.61313897    -0.08700
C1524       C  0.20067018  0.83762888  0.64548778    -0.06100
C1525       C  0.25283680  0.85702152  0.66147707    -0.00100
C1526       C  0.27875841  0.88482832  0.64419711    -0.08600
C1527       C  0.33559401  0.90703158  0.65916185     0.61800
H1528       H  0.27005473  0.91309477  0.59894499     0.12500
H1529       H  0.18127457  0.81651008  0.65891879     0.12500
C1530       C  0.11665879  0.82051530  0.59841858     0.62000
F1531       F  0.37140811  0.89903434  0.64466269    -0.23200
F1532       F  0.33835241  0.91043403  0.70753914    -0.20500
F1533       F  0.35171214  0.93288577  0.63963318    -0.20200
F1534       F  0.11757209  0.82137797  0.04335399    -0.20200
F1535       F  0.07788296  0.82331797  0.62190470    -0.20600
F1536       F  0.10862864  0.79442876  0.60963874    -0.23200
C1537       C  0.25855905  0.00079730  0.54449172    -0.06100
C1538       C  0.28114310  0.51258136  0.49958316    -0.00100
C1539       C  0.27963141  0.99592817  0.96450262    -0.08700
C1540       C  0.25265650  0.96656436  0.97000487    -0.06100
C1541       C  0.22814431  0.95407116  0.51248861    -0.00100
C1542       C  0.23252230  0.97154001  0.55105682    -0.08600
C1543       C  0.20933897  0.95921308  0.59871959     0.61800
H1544       H  0.25915153  0.51372339  0.57113834     0.12500
H1545       H  0.24829388  0.95301456  0.94046095     0.12500
C1546       C  0.30393362  0.51000709  0.91522168     0.62000
F1547       F  0.15407199  0.94199290  0.59550197    -0.23200
F1548       F  0.22068246  0.97988403  0.63217474    -0.21700
F1549       F  0.23116766  0.94368298  0.61409727    -0.20200
F1550       F  0.35882623  0.52812404  0.91919412    -0.20200
F1551       F  0.27987000  0.52452015  0.90024455    -0.20600
F1552       F  0.29493213  0.98784376  0.88421748    -0.23200
C1553       C  0.79054826  0.74620689  0.89229017    -0.06100
C1554       C  0.75898970  0.75484092  0.91690519    -0.00100
C1555       C  0.70498501  0.74358963  0.90110443    -0.08700
C1556       C  0.68366662  0.72184734  0.86671715    -0.06100
C1557       C  0.71619288  0.71407613  0.84184635    -0.00100
C1558       C  0.77220656  0.72912787  0.85178054    -0.08600
C1559       C  0.81386278  0.72945127  0.81874040     0.61800
H1560       H  0.83120009  0.75350669  0.90380729     0.12500
H1561       H  0.64132547  0.71163968  0.85771457     0.12500
C1562       C  0.67012879  0.75511801  0.91670362     0.62000
F1563       F  0.86579426  0.74998135  0.83141412    -0.23200
F1564       F  0.80493141  0.73511854  0.77347133    -0.20500
F1565       F  0.81129802  0.70406130  0.81920451    -0.20200
F1566       F  0.70107932  0.78388785  0.92293703    -0.20200
F1567       F  0.64382195  0.74227019  0.95768268    -0.20600
F1568       F  0.63151065  0.75002615  0.88299329    -0.23200
C1569       C  0.75414578  0.72699741  0.56716775    -0.06100
C1570       C  0.76750971  0.75405679  0.58182056    -0.00100
C1571       C  0.75632787  0.75862746  0.62843926    -0.08700
C1572       C  0.73208455  0.73572895  0.65906388    -0.06100
C1573       C  0.71925207  0.70866106  0.64478630    -0.00100
C1574       C  0.73032735  0.70406237  0.59801803    -0.08600
C1575       C  0.71583346  0.67509222  0.58032575     0.61800
H1576       H  0.76304928  0.72407546  0.53125408     0.12500
H1577       H  0.72331632  0.73884382  0.69491677     0.12500
C1578       C  0.76932000  0.78741788  0.64566028     0.62000
F1579       F  0.72481387  0.67486007  0.53250705    -0.23200
F1580       F  0.66194323  0.65615160  0.58844231    -0.20500
F1581       F  0.74677692  0.66648624  0.60337277    -0.20200
F1582       F  0.74226844  0.79666627  0.61828513    -0.20200
F1583       F  0.82407885  0.80611738  0.64283913    -0.20600
F1584       F  0.75411786  0.78706420  0.69197596    -0.23200
C1585       C  0.01622334  0.83498331  0.50610495    -0.06100
C1586       C  0.04364739  0.86393105  0.49767410    -0.00100
C1587       C  0.01241007  0.87350008  0.97700156    -0.08700
C1588       C  0.95588513  0.85701822  0.97999779    -0.06100
C1589       C  0.92868600  0.83068636  0.49801621    -0.00100
C1590       C  0.96021067  0.81772606  0.50306947    -0.08600
C1591       C  0.93987736  0.78630192  0.50507214     0.61800
H1592       H  0.03946774  0.82524217  0.51353568     0.12500
H1593       H  0.93277668  0.86585269  0.96715575     0.12500
C1594       C  0.03500880  0.89921360  0.94605312     0.62000
F1595       F  0.96781915  0.77997754  0.47255338    -0.23200
F1596       F  0.88920069  0.76770285  0.98600253    -0.20500
F1597       F  0.94997705  0.77999959  0.54940881    -0.20200
F1598       F  0.08324423  0.90546235  0.92583313    -0.20200
F1599       F  0.04269909  0.92359814  0.47341266    -0.20600
F1600       F  0.99989088  0.89436459  0.90915061    -0.23200
C1601       C  0.69094702  0.80846728  0.51469715    -0.06100
C1602       C  0.74611741  0.82492842  0.52443971    -0.00100
C1603       C  0.76796594  0.85189015  0.04045214    -0.08700
C1604       C  0.73516639  0.86369693  0.03740902    -0.06100
C1605       C  0.67836496  0.84836779  0.52577341    -0.00100
C1606       C  0.65592942  0.81880367  0.51908632    -0.08600
C1607       C  0.59655274  0.79635028  0.51813353     0.61800
H1608       H  0.67354870  0.78669251  0.50518638     0.12500
H1609       H  0.75189669  0.88495905  0.05013266     0.12500
C1610       C  0.81939760  0.86863058  0.06935693     0.62000
F1611       F  0.58672305  0.78263197  0.97163130    -0.23200
F1612       F  0.56466422  0.80536148  0.02438914    -0.20500
F1613       F  0.58748676  0.77590265  0.55038616    -0.20200
F1614       F  0.85880062  0.88973707  0.04229997    -0.20200
F1615       F  0.83361793  0.85066151  0.59145285    -0.20600
F1616       F  0.80032640  0.87626063  0.61790439    -0.23200
loop_ 
_geom_bond_atom_site_label_1 
_geom_bond_atom_site_label_2 
_geom_bond_distance 
_geom_bond_site_symmetry_2 
_ccdc_geom_bond_type 
C1            C2   1.541   1_556  S
C1            C7   1.538   1_556  S
C1          C409   1.517       .  S
C1          C377   1.535       .  S
C2            H9   1.085       .  S
C2            C3   1.357       .  D
C3            C4   1.531       .  S
C3          C358   1.484       .  S
C4          C412   1.573       .  S
C4          C410   1.559   1_554  S
C4           H10   1.099       .  S
C5          C405   1.518       .  S
C5           H11   1.085       .  S
C5            C6   1.365       .  D
C6          C408   1.562       .  S
C6          C342   1.519       .  S
C7           H12   1.074       .  S
C7          C412   1.374       .  D
C8          C408   1.570       .  S
C8          C411   1.372       .  D
C8          C794   1.514       .  S
C13          C19   1.530       .  S
C13          C17   1.539       .  S
C13         C418   1.535   1_554  S
C13         C374   1.537   1_554  S
C14         C417   1.537       .  S
C14          H21   1.087       .  S
C14          C15   1.366       .  D
C15         C420   1.541       .  S
C15         C294   1.501       .  S
C16          C20   1.550       .  S
C16          C18   1.550       .  S
C16         C419   1.542   1_554  S
C16          H22   1.102       .  S
C17          H23   1.081       .  S
C17          C18   1.367       .  D
C18         C310   1.496       .  S
C19          H24   1.082       .  S
C19          C20   1.363       .  D
C20         C329   1.487       .  S
C25          C26   1.548       .  S
C25          C31   1.540       .  S
C25         C433   1.547   1_554  S
C25         C278   1.562       .  S
C26          H33   1.080       .  S
C26          C27   1.363       .  D
C27          C28   1.540   1_554  S
C27         C249   1.488       .  S
C28          C32   1.540       .  S
C28         C434   1.551       .  S
C28          H34   1.109       .  S
C29         C429   1.548       .  S
C29          H35   1.080       .  S
C29          C30   1.376       .  D
C30         C432   1.551       .  S
C30         C265   1.513       .  S
C31          H36   1.086       .  S
C31          C32   1.368   1_554  D
C32         C326   1.497   1_556  S
C37          C43   1.536       .  S
C37          C41   1.544       .  S
C37         C442   1.546       .  S
C37         C230   1.550       .  S
C38         C441   1.546   1_554  S
C38          H45   1.083       .  S
C38          C39   1.368       .  D
C39         C444   1.546       .  S
C39         C198   1.498       .  S
C40          C44   1.546       .  S
C40          C42   1.541       .  S
C40         C443   1.544       .  S
C40          H46   1.111       .  S
C41          H47   1.086       .  S
C41          C42   1.371       .  D
C42         C214   1.501       .  S
C43          H48   1.081       .  S
C43          C44   1.362       .  D
C44         C281   1.486       .  S
C49          C55   1.549   1_556  S
C49          C53   1.540   1_556  S
C49         C454   1.528       .  S
C49         C637   1.551       .  S
C50         C453   1.526       .  S
C50          H57   1.087       .  S
C50          C51   1.363       .  D
C51         C456   1.547       .  S
C51         C150   1.494       .  S
C52          C56   1.548   1_556  S
C52          C54   1.545   1_556  S
C52         C455   1.548       .  S
C52          H58   1.105       .  S
C53          H59   1.084       .  S
C53          C54   1.366       .  D
C54         C166   1.498       .  S
C55         H464   1.085       .  S
C55          C56   1.374       .  D
C56         C182   1.496   1_545  S
H60         C459   1.084       .  S
C61          C62   1.533       .  S
C61          C67   1.549       .  S
C61         C469   1.542   1_554  S
C61         C393   1.549       .  S
C62          H69   1.087       .  S
C62          C63   1.361       .  D
C63          C64   1.537       .  S
C63         C118   1.490       .  S
C64          C68   1.542       .  S
C64         C470   1.551   1_554  S
C64          H70   1.108   1_554  S
C65         C465   1.544       .  S
C65          H71   1.074       .  S
C65          C66   1.375       .  D
C66         C468   1.550       .  S
C66         C134   1.511       .  S
C67          H72   1.082       .  S
C67          C68   1.365       .  D
C68         C185   1.490   1_554  S
O73          C88   1.262       .  A
O73         Al81   1.912       .  S
C74          O84   1.265       .  A
C74          O75   1.257       .  A
C74         C201   1.506       .  S
O75         Al77   1.905       .  S
O76          C78   1.261       .  A
O76         Al77   1.897       .  S
Al77         O85   1.910       .  S
Al77         O87   1.883       .  S
Al77         O86   1.776       .  S
C78          O91   1.260       .  A
C78         C121   1.477       .  S
O79          C89   1.262       .  A
O79         Al81   1.907       .  S
O80          C93   1.264       .  A
O80         Al90   1.911       .  S
Al81         O94   1.911       .  S
Al81         O91   1.918       .  S
Al81         O86   1.794       .  S
O82          C89   1.264       .  A
O82         Al90   1.899       .  S
O83          C92   1.263       .  A
O83         Al90   1.928       .  S
O84         Al90   1.923       .  S
O85          C92   1.261       .  A
O86         Al90   1.778       .  S
O87          C88   1.261       .  A
C88         C137   1.487       .  S
C89         C313   1.488       .  S
C92         C217   1.485       .  S
C93          O94   1.259       .  A
C93         C297   1.475       .  S
O95         C110   1.257       .  A
O95        Al103   1.897       .  S
C96         O106   1.258       .  A
C96          O97   1.262       .  A
C96         C361   1.484       .  S
O97         Al99   1.920       .  S
O98         C100   1.262       .  A
O98         Al99   1.888       .  S
Al99        O107   1.896       .  S
Al99        O109   1.913       .  S
Al99        O108   1.783       .  S
C100        O113   1.265       .  A
C100        C246   1.503       .  S
O101        C111   1.258       .  A
O101       Al103   1.890       .  S
O102        C115   1.256       .  A
O102       Al112   1.875       .  S
Al103       O116   1.932       .  S
Al103       O113   1.934       .  S
Al103       O108   1.788       .  S
O104        C111   1.261       .  A
O104       Al112   1.908       .  S
O105        C114   1.264       .  A
O105       Al112   1.926       .  S
O106       Al112   1.898       .  S
O107        C114   1.262       .  A
O108       Al112   1.776       .  S
O109        C110   1.262       .  A
C110        C262   1.478       .  S
C111        C169   1.466       .  S
C114        C345   1.499       .  S
C115        O116   1.265       .  A
C115        C153   1.498       .  S
C117        C118   1.403       .  A
C117        C122   1.409       .  A
C117        H124   1.083       .  S
C118        C119   1.421       .  A
C119        C126   1.512       .  S
C119        C120   1.404       .  A
C120        C121   1.397       .  A
C120        H125   1.084       .  S
C121        C122   1.419       .  A
C122        C123   1.518       .  S
C123        F127   1.385       .  S
C123        F128   1.383       .  S
C123        F129   1.381       .  S
C126        F132   1.385       .  S
C126        F534   1.376       .  S
C126        F535   1.379   1_554  S
F130        C530   1.376       .  S
F131        C530   1.378       .  S
C133        C134   1.415       .  A
C133        C138   1.409       .  A
C133        H140   1.080       .  S
C134        C135   1.430       .  A
C135        C142   1.521       .  S
C135        C136   1.399       .  A
C136        C137   1.402       .  A
C136        H141   1.081       .  S
C137        C138   1.413       .  A
C138        C139   1.519       .  S
C139        F143   1.385       .  S
C139        F144   1.383       .  S
C139        F145   1.382       .  S
C142        F146   1.369       .  S
C142        F147   1.381       .  S
C142        F148   1.385       .  S
C149        C150   1.399       .  A
C149        C154   1.396       .  A
C149        H156   1.079       .  S
C150        C151   1.414       .  A
C151        C158   1.516       .  S
C151        C152   1.414       .  A
C152        C153   1.413       .  A
C152        H157   1.082       .  S
C153        C154   1.425       .  A
C154        C155   1.519       .  S
C155        F159   1.384       .  S
C155        F160   1.382       .  S
C155        F161   1.385       .  S
C158        F162   1.380       .  S
C158        F163   1.382       .  S
C158        F164   1.385       .  S
C165        C166   1.407       .  A
C165        C170   1.404       .  A
C165        H172   1.081       .  S
C166        C167   1.425       .  A
C167        C174   1.510       .  S
C167        C168   1.405       .  A
C168        C169   1.393       .  A
C168        H173   1.083       .  S
C169        C170   1.410       .  A
C170        C171   1.517       .  S
C171        F175   1.384       .  S
C171        F176   1.384       .  S
C171        F177   1.382       .  S
C174        F180   1.385       .  S
C174        F582   1.378   1_554  S
C174        F583   1.378   1_554  S
F178        C578   1.378       .  S
F179        C578   1.378       .  S
C181        C186   1.411       .  A
C181       C1394   1.404       .  A
C181        H188   1.083       .  S
C182       C1393   1.402   1_554  A
C182        C991   1.419       .  A
C183        C998   1.512       .  S
C183        C184   1.411       .  A
C183        C990   1.419       .  A
C184        C185   1.400   1_554  A
C184        H189   1.084       .  S
C185        C590   1.420       .  A
C186        C187   1.520       .  S
C186        C589   1.418       .  A
C187        F191   1.384       .  S
C187        F192   1.381       .  S
C187        F193   1.381       .  S
C190        C991   1.511       .  S
C190        F194   1.380   1_565  S
C190        F195   1.382   1_565  S
C190       F1004   1.384       .  S
F196        C998   1.385       .  S
C197        C198   1.399       .  A
C197        C202   1.412       .  A
C197        H204   1.080       .  S
C198        C199   1.420       .  A
C199        C206   1.520       .  S
C199        C200   1.409       .  A
C200        C201   1.408       .  A
C200        H205   1.084       .  S
C201        C202   1.433       .  A
C202        C203   1.523       .  S
C203        F207   1.384       .  S
C203        F208   1.383       .  S
C203        F209   1.383       .  S
C206        F210   1.382       .  S
C206        F211   1.383       .  S
C206        F212   1.383       .  S
C213        C214   1.409       .  A
C213        C218   1.412       .  A
C213        H220   1.082       .  S
C214        C215   1.423       .  A
C215        C222   1.518       .  S
C215        C216   1.410       .  A
C216        C217   1.402       .  A
C216        H221   1.085       .  S
C217        C218   1.414       .  A
C218        C219   1.517       .  S
C219        F223   1.385       .  S
C219        F224   1.382       .  S
C219        F225   1.382       .  S
C222        F226   1.380       .  S
C222        F227   1.384       .  S
C222        F228   1.383       .  S
C229        C230   1.406   1_655  A
C229        C234   1.408       .  A
C229        H236   1.082   1_655  S
C230        C635   1.429   1_455  A
C231        C238   1.521   1_655  S
C231        C232   1.413       .  A
C231        C634   1.430   1_655  A
C232        C637   1.410       .  A
C232        H237   1.081       .  S
C233        C453   1.550       .  S
C233        C234   1.437       .  A
C233        C636   1.412       .  A
C234        C235   1.528       .  S
C235        F239   1.386       .  S
C235        F241   1.374       .  S
C235        F644   1.383       .  S
C238        F242   1.382       .  S
C238        F244   1.385   1_455  S
C238        F647   1.377       .  S
F240        C639   1.383       .  S
F243        C642   1.380       .  S
C245        C246   1.410       .  A
C245        C250   1.405       .  A
C245        H252   1.081       .  S
C246        C247   1.428       .  A
C247        C254   1.520       .  S
C247        C248   1.414       .  A
C248        C249   1.401       .  A
C248        H253   1.081       .  S
C249        C250   1.417       .  A
C250        C251   1.523       .  S
C251        F255   1.380       .  S
C251        F256   1.380       .  S
C251        F661   1.385       .  S
C254        F258   1.384       .  S
C254        F259   1.384       .  S
C254        F260   1.385       .  S
F257        C655   1.384       .  S
C261        C262   1.395       .  A
C261        C266   1.403       .  A
C261        H268   1.085       .  S
C262        C263   1.413       .  A
C263        C270   1.520       .  S
C263        C264   1.411       .  A
C264        C265   1.414       .  A
C264        H269   1.080       .  S
C265        C266   1.430       .  A
C266        C267   1.515       .  S
C267        F271   1.386       .  S
C267        F272   1.381       .  S
C267        F273   1.373       .  S
C270        F274   1.384       .  S
C270        F275   1.382       .  S
C270        F276   1.385       .  S
C277        C282   1.410       .  A
C277        C682   1.414       .  A
C277        H284   1.082       .  S
C278        C279   1.435   1_554  A
C278        C681   1.419       .  A
C279        C286   1.519       .  S
C279        C280   1.410       .  A
C280        C685   1.397   1_556  A
C280        H285   1.085       .  S
C281        C282   1.417       .  A
C281        C684   1.399       .  A
C282        C283   1.518       .  S
C283        F289   1.383       .  S
C283        F691   1.383       .  S
C283        F692   1.379       .  S
C286        F290   1.372       .  S
C286        F695   1.382       .  S
C286        F696   1.385       .  S
F287        C687   1.384       .  S
F288        C687   1.379       .  S
F291        C690   1.380       .  S
F292        C690   1.385       .  S
C293        C294   1.408       .  A
C293        C298   1.408       .  A
C293        H300   1.083       .  S
C294        C295   1.427       .  A
C295        C302   1.515       .  S
C295        C296   1.409       .  A
C296        C297   1.395       .  A
C296        H301   1.082       .  S
C297        C298   1.413       .  A
C298        C299   1.518       .  S
C299        F303   1.385       .  S
C299        F304   1.383       .  S
C299        F305   1.382       .  S
C302        F308   1.385       .  S
C302        F710   1.373       .  S
C302        F711   1.378       .  S
F306        C706   1.370   1_554  S
F307        C706   1.377   1_554  S
C309        C310   1.408       .  A
C309        C314   1.411       .  A
C309        H316   1.081       .  S
C310        C311   1.429       .  A
C311        C318   1.529       .  S
C311        C312   1.399       .  A
C312        C313   1.403       .  A
C312        H317   1.084       .  S
C313        C314   1.419       .  A
C314        C315   1.518       .  S
C315        F319   1.384       .  S
C315        F320   1.382       .  S
C315        F321   1.385       .  S
C318        F323   1.381       .  S
C318        F324   1.384       .  S
C318        F726   1.381       .  S
F322        C722   1.379       .  S
C325        C330   1.410       .  A
C325       C1134   1.404       .  A
C325       H1140   1.083       .  S
C326       C1133   1.405       .  A
C326       C1539   1.421   1_544  A
C327       C1142   1.514       .  S
C327        C328   1.407       .  A
C327       C1538   1.419       .  A
C328        C733   1.398       .  A
C328        H333   1.084       .  S
C329        C330   1.417       .  A
C329        C732   1.400   1_554  A
C330        C331   1.518       .  S
C331        F335   1.382       .  S
C331        F336   1.385       .  S
C331        F337   1.381       .  S
H332       C1133   1.083       .  S
C334       C1135   1.513   1_545  S
C334        F338   1.381       .  S
C334        F339   1.380       .  S
C334       F1148   1.384   1_545  S
F340       C1142   1.385       .  S
C341        C342   1.413       .  A
C341        C346   1.403       .  A
C341        H348   1.079       .  S
C342        C343   1.423       .  A
C343        C350   1.510       .  S
C343        C344   1.411       .  A
C344        C345   1.408       .  A
C344        H349   1.083       .  S
C345        C346   1.419       .  A
C346        C347   1.521       .  S
C347        F351   1.385       .  S
C347        F352   1.384       .  S
C347        F353   1.374       .  S
C350        F354   1.381       .  S
C350        F355   1.381       .  S
C350        F356   1.385       .  S
C357        C358   1.403       .  A
C357        C362   1.411       .  A
C357        H364   1.083       .  S
C358        C359   1.413       .  A
C359        C366   1.516       .  S
C359        C360   1.406       .  A
C360        C361   1.405       .  A
C360        H365   1.083       .  S
C361        C362   1.420       .  A
C362        C363   1.519       .  S
C363        F367   1.384       .  S
C363        F368   1.384       .  S
C363        F369   1.383       .  S
C366        F370   1.380       .  S
C366        F371   1.382       .  S
C366        F372   1.384       .  S
C373        C374   1.406   1_554  A
C373        C378   1.400   1_455  A
C373        H380   1.081       .  S
C374        C779   1.424       .  A
C375        C382   1.521       .  S
C375        C376   1.410   1_455  A
C375        C778   1.423       .  A
C376        C781   1.412       .  A
C376        H381   1.079       .  S
C377        C378   1.430   1_556  A
C377        C780   1.411       .  A
C378        C379   1.528       .  S
C379        F383   1.385   1_554  S
C379        F385   1.383       .  S
C379        F788   1.377   1_554  S
C382        F386   1.382       .  S
C382        F388   1.386       .  S
C382        F791   1.383       .  S
F384        C783   1.377       .  S
F387        C786   1.382       .  S
C389        C390   1.400       .  A
C389        C394   1.403       .  A
C389        H396   1.065       .  S
C390        C412   1.521       .  S
C390        C795   1.430       .  A
C391        C398   1.522       .  S
C391        C392   1.408       .  A
C391        C794   1.429       .  A
C392        C797   1.409       .  A
C392        H397   1.079       .  S
C393        C394   1.431       .  A
C393        C796   1.410       .  A
C394        C395   1.520       .  S
C395        F401   1.385       .  S
C395        F803   1.383   1_554  S
C395        F804   1.371       .  S
C398        F402   1.383       .  S
C398        F807   1.379       .  S
C398        F808   1.385       .  S
F399        C799   1.383       .  S
F400        C799   1.372       .  S
F403        C802   1.381       .  S
F404        C802   1.385       .  S
C405        C406   1.543       .  S
C405        C411   1.537       .  S
C405        C781   1.534       .  S
C406        H413   1.084       .  S
C406        C407   1.358       .  D
C407        C408   1.530       .  S
C407        C762   1.484       .  S
C408        H414   1.101       .  S
C409        H415   1.086       .  S
C409        C410   1.366       .  D
C410        C746   1.516       .  S
C411        H416   1.077       .  S
C417        C423   1.527       .  S
C417        C421   1.541       .  S
C417        C778   1.537       .  S
C418        H425   1.087       .  S
C418        C419   1.367       .  D
C419        C698   1.504       .  S
C420        C424   1.549       .  S
C420        C422   1.551       .  S
C420        H426   1.105       .  S
C421        H427   1.078       .  S
C421        C422   1.365       .  D
C422        C714   1.501       .  S
C423        H428   1.081       .  S
C423        C424   1.363       .  D
C424        C733   1.479       .  S
C429        C430   1.545       .  S
C429        C435   1.539       .  S
C429        C682   1.554       .  S
C430        H437   1.084       .  S
C430        C431   1.362       .  D
C431        C432   1.540       .  S
C431        C653   1.488       .  S
C432        C436   1.538       .  S
C432        H438   1.109       .  S
C433        H439   1.078       .  S
C433        C434   1.375       .  D
C434        C669   1.514       .  S
C435        H440   1.086       .  S
C435        C436   1.367       .  D
C436        C730   1.493       .  S
C441        C447   1.537   1_556  S
C441        C445   1.541       .  S
C441        C634   1.552       .  S
C442        H449   1.084       .  S
C442        C443   1.366       .  D
C443        C602   1.492       .  S
C444        C448   1.551       .  S
C444        C446   1.547   1_554  S
C444        H450   1.110       .  S
C445        H451   1.083       .  S
C445        C446   1.371       .  D
C446        C618   1.509       .  S
C447        H452   1.084       .  S
C447        C448   1.364       .  D
C448        C685   1.493       .  S
C453        C459   1.549       .  S
C453        C457   1.542       .  S
C454        H461   1.087       .  S
C454        C455   1.367       .  D
C455        C554   1.497       .  S
C456        C460   1.548       .  S
C456        C458   1.546       .  S
C456        H462   1.105       .  S
C457        H463   1.086       .  S
C457        C458   1.369       .  D
C458        C570   1.500       .  S
C459        C460   1.371       .  D
C460        C586   1.495   1_545  S
C465        C466   1.532       .  S
C465        C471   1.549       .  S
C465        C797   1.546       .  S
C466        H473   1.087       .  S
C466        C467   1.360       .  D
C467        C468   1.533       .  S
C467        C522   1.482       .  S
C468        C472   1.538       .  S
C468        H474   1.108       .  S
C469        H475   1.074       .  S
C469        C470   1.374       .  D
C470        C538   1.511       .  S
C471        H476   1.082       .  S
C471        C472   1.365       .  D
C472        C589   1.488       .  S
O477        C492   1.262       .  A
O477       Al485   1.911       .  S
C478        O488   1.264       .  A
C478        O479   1.257       .  A
C478        C605   1.503       .  S
O479       Al481   1.908       .  S
O480        C482   1.261       .  A
O480       Al481   1.888       .  S
Al481       O489   1.914       .  S
Al481       O491   1.884       .  S
Al481       O490   1.776       .  S
C482        O495   1.259       .  A
C482        C525   1.469       .  S
O483        C493   1.262       .  A
O483       Al485   1.907       .  S
O484        C497   1.262       .  A
O484       Al494   1.902       .  S
Al485       O498   1.896       .  S
Al485       O495   1.908       .  S
Al485       O490   1.796       .  S
O486        C493   1.264       .  A
O486       Al494   1.902       .  S
O487        C496   1.264       .  A
O487       Al494   1.929       .  S
O488       Al494   1.913       .  S
O489        C496   1.262       .  A
O490       Al494   1.776       .  S
O491        C492   1.261       .  A
C492        C541   1.486       .  S
C493        C717   1.491       .  S
C496        C621   1.489       .  S
C497        O498   1.257       .  A
C497        C701   1.464       .  S
O499        C514   1.259       .  A
O499       Al507   1.901       .  S
C500        O510   1.257       .  A
C500        O501   1.263       .  A
C500        C765   1.484       .  S
O501       Al503   1.915       .  S
O502        C504   1.261       .  A
O502       Al503   1.891       .  S
Al503       O511   1.904       .  S
Al503       O513   1.912       .  S
Al503       O512   1.786       .  S
C504        O517   1.265       .  A
C504        C650   1.503       .  S
O505        C515   1.260       .  A
O505       Al507   1.903       .  S
O506        C519   1.258       .  A
O506       Al516   1.878       .  S
Al507       O520   1.941       .  S
Al507       O517   1.934       .  S
Al507       O512   1.791       .  S
O508        C515   1.259       .  A
O508       Al516   1.901       .  S
O509        C518   1.262       .  A
O509       Al516   1.924       .  S
O510       Al516   1.894       .  S
O511        C518   1.262       .  A
O512       Al516   1.778       .  S
O513        C514   1.262       .  A
C514        C666   1.479       .  S
C515        C573   1.471       .  S
C518        C749   1.502       .  S
C519        O520   1.266       .  A
C519        C557   1.503       .  S
C521        C522   1.402       .  A
C521        C526   1.407       .  A
C521        H528   1.083       .  S
C522        C523   1.419       .  A
C523        C530   1.511       .  S
C523        C524   1.399       .  A
C524        C525   1.395       .  A
C524        H529   1.084       .  S
C525        C526   1.418       .  A
C526        C527   1.518       .  S
C527        F531   1.385       .  S
C527        F532   1.383       .  S
C527        F533   1.382       .  S
C530        F536   1.385       .  S
C537        C538   1.415       .  A
C537        C542   1.409       .  A
C537        H544   1.079       .  S
C538        C539   1.431       .  A
C539        C546   1.522       .  S
C539        C540   1.398       .  A
C540        C541   1.401       .  A
C540        H545   1.081       .  S
C541        C542   1.413       .  A
C542        C543   1.519       .  S
C543        F547   1.385       .  S
C543        F548   1.383       .  S
C543        F549   1.382       .  S
C546        F550   1.368       .  S
C546        F551   1.381       .  S
C546        F552   1.386       .  S
C553        C554   1.396       .  A
C553        C558   1.394       .  A
C553        H560   1.078       .  S
C554        C555   1.416       .  A
C555        C562   1.516       .  S
C555        C556   1.419       .  A
C556        C557   1.415       .  A
C556        H561   1.082       .  S
C557        C558   1.425       .  A
C558        C559   1.515       .  S
C559        F563   1.385       .  S
C559        F564   1.380       .  S
C559        F565   1.385       .  S
C562        F566   1.380       .  S
C562        F567   1.383       .  S
C562        F568   1.384       .  S
C569        C570   1.407       .  A
C569        C574   1.405       .  A
C569        H576   1.081       .  S
C570        C571   1.426       .  A
C571        C578   1.513       .  S
C571        C572   1.408       .  A
C572        C573   1.395       .  A
C572        H577   1.083       .  S
C573        C574   1.412       .  A
C574        C575   1.519       .  S
C575        F579   1.384       .  S
C575        F580   1.383       .  S
C575        F581   1.382       .  S
C578        F584   1.385       .  S
C585        C990   1.404   1_556  A
C585        C590   1.412       .  A
C585        H592   1.083       .  S
C586        C989   1.403       .  A
C586       C1395   1.418       .  A
C587       C1402   1.513       .  S
C587       C1394   1.420       .  A
C587        C588   1.410       .  A
C588        C589   1.400       .  A
C588        H593   1.084       .  S
C590        C591   1.520       .  S
C591        F595   1.385       .  S
C591        F596   1.380       .  S
C591        F597   1.381       .  S
C594       C1395   1.513       .  S
C594        F598   1.380   1_565  S
C594        F599   1.382   1_565  S
C594       F1408   1.385       .  S
F600       C1402   1.385       .  S
C601        C602   1.399       .  A
C601        C606   1.411       .  A
C601        H608   1.082       .  S
C602        C603   1.420       .  A
C603        C610   1.521       .  S
C603        C604   1.408       .  A
C604        C605   1.408       .  A
C604        H609   1.083       .  S
C605        C606   1.432       .  A
C606        C607   1.523       .  S
C607        F611   1.385       .  S
C607        F612   1.384       .  S
C607        F613   1.383       .  S
C610        F614   1.381       .  S
C610        F615   1.382       .  S
C610        F616   1.385       .  S
C617        C618   1.411       .  A
C617        C622   1.415       .  A
C617        H624   1.082       .  S
C618        C619   1.426       .  A
C619        C626   1.518       .  S
C619        C620   1.410       .  A
C620        C621   1.401       .  A
C620        H625   1.084       .  S
C621        C622   1.415       .  A
C622        C623   1.518       .  S
C623        F627   1.384       .  S
C623        F628   1.383       .  S
C623        F629   1.382       .  S
C626        F630   1.381       .  S
C626        F631   1.385       .  S
C626        F632   1.383       .  S
C633        C634   1.408   1_654  A
C633        C638   1.410       .  A
C633        H640   1.081   1_655  S
C635        C642   1.523   1_655  S
C635        C636   1.413       .  A
C636        H641   1.079       .  S
C637        C638   1.436   1_556  A
C638        C639   1.527       .  S
C639        F643   1.386   1_554  S
C639        F645   1.375   1_554  S
C642        F646   1.383       .  S
C642        F648   1.385   1_455  S
C649        C650   1.410       .  A
C649        C654   1.407       .  A
C649        H656   1.082       .  S
C650        C651   1.428       .  A
C651        C658   1.520       .  S
C651        C652   1.413       .  A
C652        C653   1.400       .  A
C652        H657   1.083       .  S
C653        C654   1.416       .  A
C654        C655   1.523       .  S
C655        F659   1.381       .  S
C655        F660   1.379       .  S
C658        F662   1.384       .  S
C658        F663   1.383       .  S
C658        F664   1.385       .  S
C665        C666   1.396       .  A
C665        C670   1.406       .  A
C665        H672   1.084       .  S
C666        C667   1.412       .  A
C667        C674   1.520       .  S
C667        C668   1.411       .  A
C668        C669   1.414       .  A
C668        H673   1.081       .  S
C669        C670   1.432       .  A
C670        C671   1.518       .  S
C671        F675   1.386       .  S
C671        F676   1.380       .  S
C671        F677   1.373       .  S
C674        F678   1.384       .  S
C674        F679   1.383       .  S
C674        F680   1.385       .  S
C681        C686   1.413       .  A
C681        H688   1.077       .  S
C682        C683   1.429       .  A
C683        C690   1.516       .  S
C683        C684   1.408       .  A
C684        H689   1.084       .  S
C685        C686   1.416       .  A
C686        C687   1.519       .  S
C687        F693   1.383       .  S
C690        F694   1.377       .  S
C697        C698   1.410       .  A
C697        C702   1.404       .  A
C697        H704   1.083       .  S
C698        C699   1.433       .  A
C699        C706   1.515       .  S
C699        C700   1.407       .  A
C700        C701   1.391       .  A
C700        H705   1.083       .  S
C701        C702   1.409       .  A
C702        C703   1.518       .  S
C703        F707   1.384       .  S
C703        F708   1.383       .  S
C703        F709   1.382       .  S
C706        F712   1.385       .  S
C713        C714   1.408       .  A
C713        C718   1.412       .  A
C713        H720   1.081       .  S
C714        C715   1.431       .  A
C715        C722   1.529       .  S
C715        C716   1.400       .  A
C716        C717   1.402       .  A
C716        H721   1.082       .  S
C717        C718   1.419       .  A
C718        C719   1.519       .  S
C719        F723   1.383       .  S
C719        F724   1.383       .  S
C719        F725   1.385       .  S
C722        F727   1.382       .  S
C722        F728   1.385       .  S
C729       C1538   1.403       .  A
C729        C734   1.408       .  A
C729       H1544   1.084       .  S
C730       C1537   1.404       .  A
C730       C1135   1.418   1_545  A
C731       C1546   1.515       .  S
C731       C1134   1.420   1_556  A
C731        C732   1.411       .  A
C732        H737   1.084       .  S
C733        C734   1.417       .  A
C734        C735   1.519       .  S
C735        F739   1.382       .  S
C735        F740   1.385       .  S
C735        F741   1.381       .  S
H736       C1537   1.083       .  S
C738       C1539   1.513   1_545  S
C738        F742   1.380       .  S
C738        F743   1.378       .  S
C738       F1552   1.385   1_545  S
F744       C1546   1.385       .  S
C745        C746   1.410       .  A
C745        C750   1.401       .  A
C745        H752   1.080       .  S
C746        C747   1.423       .  A
C747        C754   1.511       .  S
C747        C748   1.414       .  A
C748        C749   1.409       .  A
C748        H753   1.083       .  S
C749        C750   1.421       .  A
C750        C751   1.520       .  S
C751        F755   1.386       .  S
C751        F756   1.383       .  S
C751        F757   1.370       .  S
C754        F758   1.381       .  S
C754        F759   1.381       .  S
C754        F760   1.385       .  S
C761        C762   1.402       .  A
C761        C766   1.410       .  A
C761        H768   1.083       .  S
C762        C763   1.414       .  A
C763        C770   1.514       .  S
C763        C764   1.403       .  A
C764        C765   1.404       .  A
C764        H769   1.083       .  S
C765        C766   1.421       .  A
C766        C767   1.519       .  S
C767        F771   1.385       .  S
C767        F772   1.383       .  S
C767        F773   1.383       .  S
C770        F774   1.379       .  S
C770        F775   1.381       .  S
C770        F776   1.385       .  S
C777        C778   1.404       .  A
C777        C782   1.397   1_455  A
C777        H784   1.079       .  S
C779        C786   1.520       .  S
C779        C780   1.409   1_455  A
C780        H785   1.080       .  S
C781        C782   1.431       .  A
C782        C783   1.530       .  S
C783        F787   1.385       .  S
C783        F789   1.383       .  S
C786        F790   1.382       .  S
C786        F792   1.385       .  S
C793        C794   1.398       .  A
C793        C798   1.401       .  A
C793        H800   1.074       .  S
C795        C802   1.522       .  S
C795        C796   1.411       .  A
C796        H801   1.077       .  S
C797        C798   1.430       .  A
C798        C799   1.518       .  S
C799        F805   1.385       .  S
C802        F806   1.383       .  S
C809        C810   1.540   1_556  S
C809        C815   1.536   1_556  S
C809       C1217   1.516       .  S
C809       C1185   1.534       .  S
C810        H817   1.085       .  S
C810        C811   1.356       .  D
C811        C812   1.532       .  S
C811       C1166   1.485       .  S
C812       C1220   1.573       .  S
C812       C1218   1.564   1_554  S
C812        H818   1.098       .  S
C813       C1213   1.519       .  S
C813        H819   1.086       .  S
C813        C814   1.367       .  D
C814       C1216   1.562       .  S
C814       C1150   1.521       .  S
C815        H820   1.075       .  S
C815       C1220   1.373       .  D
C816       C1216   1.568       .  S
C816       C1219   1.376       .  D
C816       C1602   1.514       .  S
C821       C1226   1.535   1_554  S
C821        C827   1.532       .  S
C821        C825   1.540       .  S
C821       C1182   1.539   1_554  S
C822       C1225   1.537       .  S
C822        H829   1.087       .  S
C822        C823   1.365       .  D
C823       C1228   1.539       .  S
C823       C1102   1.497       .  S
C824       C1227   1.543   1_554  S
C824        C828   1.549       .  S
C824        C826   1.553       .  S
C824        H830   1.101       .  S
C825        H831   1.080       .  S
C825        C826   1.368       .  D
C826       C1118   1.503       .  S
C827        H832   1.080       .  S
C827        C828   1.364       .  D
C828       C1137   1.487       .  S
C833        C834   1.547       .  S
C833        C839   1.540       .  S
C833       C1241   1.547   1_554  S
C833       C1086   1.562       .  S
C834        H841   1.082       .  S
C834        C835   1.364       .  D
C835        C836   1.540   1_554  S
C835       C1057   1.489       .  S
C836        C840   1.539       .  S
C836       C1242   1.550       .  S
C836        H842   1.109       .  S
C837       C1237   1.549       .  S
C837        H843   1.081       .  S
C837        C838   1.376       .  D
C838       C1240   1.547       .  S
C838       C1073   1.508       .  S
C839        H844   1.086       .  S
C839        C840   1.368   1_554  D
C840       C1134   1.496   1_556  S
C845       C1250   1.552       .  S
C845        C851   1.536       .  S
C845        C849   1.543       .  S
C845       C1038   1.555       .  S
C846       C1249   1.545       .  S
C846        H853   1.084       .  S
C846        C847   1.367       .  D
C847       C1252   1.548       .  S
C847       C1006   1.496       .  S
C848       C1251   1.542       .  S
C848        C852   1.548       .  S
C848        C850   1.544       .  S
C848        H854   1.111       .  S
C849        H855   1.085       .  S
C849        C850   1.373       .  D
C850       C1022   1.505       .  S
C851        H856   1.083       .  S
C851        C852   1.363       .  D
C852       C1089   1.487       .  S
C857       C1262   1.529   1_554  S
C857        C863   1.549       .  S
C857        C861   1.540       .  S
C857       C1445   1.552       .  S
C858       C1261   1.529       .  S
C858        H865   1.087       .  S
C858        C859   1.365       .  D
C859       C1264   1.548       .  S
C859        C958   1.498       .  S
C860       C1263   1.549       .  S
C860        C864   1.550   1_556  S
C860        C862   1.546   1_556  S
C860        H866   1.102       .  S
C861        H867   1.086       .  S
C861        C862   1.366       .  D
C862        C974   1.500       .  S
C863       H1272   1.084       .  S
C863        C864   1.373       .  D
C864        C990   1.497       .  S
H868       C1267   1.085       .  S
C869        C870   1.532       .  S
C869        C875   1.548       .  S
C869       C1277   1.541   1_554  S
C869       C1201   1.549       .  S
C870        H877   1.087       .  S
C870        C871   1.360       .  D
C871        C872   1.539       .  S
C871        C926   1.489       .  S
C872        C876   1.545       .  S
C872       C1278   1.552   1_554  S
C872        H878   1.108       .  S
C873       C1273   1.542       .  S
C873        H879   1.075       .  S
C873        C874   1.374       .  D
C874       C1276   1.551       .  S
C874        C942   1.512       .  S
C875        H880   1.082       .  S
C875        C876   1.364       .  D
C876        C993   1.490       .  S
O881        C896   1.260       .  A
O881       Al889   1.910       .  S
C882        O892   1.265       .  A
C882        O883   1.257       .  A
C882       C1009   1.506       .  S
O883       Al885   1.908       .  S
O884        C886   1.263       .  A
O884       Al885   1.906       .  S
Al885       O893   1.918       .  S
Al885       O895   1.883       .  S
Al885       O894   1.777       .  S
C886        O899   1.262       .  A
C886        C929   1.482       .  S
O887        C897   1.260       .  A
O887       Al889   1.902       .  S
O888        C901   1.263       .  A
O888       Al898   1.902       .  S
Al889       O902   1.912       .  S
Al889       O899   1.918       .  S
Al889       O894   1.792       .  S
O890        C897   1.265       .  A
O890       Al898   1.907       .  S
O891        C900   1.266       .  A
O891       Al898   1.935       .  S
O892       Al898   1.921       .  S
O893        C900   1.263       .  A
O894       Al898   1.777       .  S
O895        C896   1.260       .  A
C896        C945   1.487       .  S
C897       C1121   1.492       .  S
C900       C1025   1.491       .  S
C901        O902   1.261       .  A
C901       C1105   1.472       .  S
O903        C918   1.258       .  A
O903       Al911   1.891       .  S
C904        O914   1.259       .  A
C904        O905   1.261       .  A
C904       C1169   1.482       .  S
O905       Al907   1.911       .  S
O906        C908   1.262       .  A
O906       Al907   1.892       .  S
Al907       O915   1.897       .  S
Al907       O917   1.911       .  S
Al907       O916   1.786       .  S
C908        O921   1.265       .  A
C908       C1054   1.504       .  S
O909        C919   1.258       .  A
O909       Al911   1.889       .  S
O910        C923   1.258       .  A
O910       Al920   1.882       .  S
Al911       O924   1.937       .  S
Al911       O921   1.933       .  S
Al911       O916   1.785       .  S
O912        C919   1.262       .  A
O912       Al920   1.917       .  S
O913        C922   1.265       .  A
O913       Al920   1.932       .  S
O914       Al920   1.901       .  S
O915        C922   1.262       .  A
O916       Al920   1.777       .  S
O917        C918   1.262       .  A
C918       C1070   1.473       .  S
C919        C977   1.469       .  S
C922       C1153   1.502       .  S
C923        O924   1.266       .  A
C923        C961   1.502       .  S
C925        C926   1.400       .  A
C925        C930   1.408       .  A
C925        H932   1.083       .  S
C926        C927   1.420       .  A
C927        C934   1.514       .  S
C927        C928   1.409       .  A
C928        C929   1.400       .  A
C928        H933   1.083       .  S
C929        C930   1.420       .  A
C930        C931   1.518       .  S
C931        F935   1.384       .  S
C931        F936   1.383       .  S
C931        F937   1.381       .  S
C934       F1342   1.378       .  S
C934       F1343   1.379   1_554  S
C934        F940   1.384       .  S
F938       C1338   1.376       .  S
F939       C1338   1.378       .  S
C941        C942   1.415       .  A
C941        C946   1.409       .  A
C941        H948   1.079       .  S
C942        C943   1.431       .  A
C943        C950   1.522       .  S
C943        C944   1.398       .  A
C944        C945   1.401       .  A
C944        H949   1.081       .  S
C945        C946   1.414       .  A
C946        C947   1.519       .  S
C947        F951   1.385       .  S
C947        F952   1.383       .  S
C947        F953   1.382       .  S
C950        F954   1.369       .  S
C950        F955   1.381       .  S
C950        F956   1.386       .  S
C957        C958   1.399       .  A
C957        C962   1.398       .  A
C957        H964   1.081       .  S
C958        C959   1.416       .  A
C959        C966   1.518       .  S
C959        C960   1.417       .  A
C960        C961   1.414       .  A
C960        H965   1.082       .  S
C961        C962   1.425       .  A
C962        C963   1.517       .  S
C963        F967   1.384       .  S
C963        F968   1.381       .  S
C963        F969   1.385       .  S
C966        F970   1.379       .  S
C966        F971   1.383       .  S
C966        F972   1.385       .  S
C973        C974   1.407       .  A
C973        C978   1.407       .  A
C973        H980   1.081       .  S
C974        C975   1.425       .  A
C975        C982   1.509       .  S
C975        C976   1.405       .  A
C976        C977   1.393       .  A
C976        H981   1.083       .  S
C977        C978   1.410       .  A
C978        C979   1.517       .  S
C979        F983   1.385       .  S
C979        F984   1.384       .  S
C979        F985   1.382       .  S
C982       F1390   1.378   1_554  S
C982       F1391   1.376       .  S
C982        F988   1.385       .  S
F986       C1386   1.378       .  S
F987       C1386   1.376       .  S
C989        C994   1.410       .  A
C989        H996   1.082       .  S
C991        C992   1.411       .  A
C992        C993   1.400       .  A
C992        H997   1.083       .  S
C993       C1398   1.421   1_554  A
C994        C995   1.519       .  S
C994       C1397   1.418       .  A
C995        F999   1.384       .  S
C995       F1000   1.380       .  S
C995       F1001   1.381       .  S
C998       F1002   1.380       .  S
C998       F1003   1.382       .  S
C1005      C1006   1.398       .  A
C1005      C1010   1.412       .  A
C1005      H1012   1.080       .  S
C1006      C1007   1.420       .  A
C1007      C1014   1.519       .  S
C1007      C1008   1.408       .  A
C1008      C1009   1.407       .  A
C1008      H1013   1.084       .  S
C1009      C1010   1.434       .  A
C1010      C1011   1.523       .  S
C1011      F1015   1.384       .  S
C1011      F1016   1.384       .  S
C1011      F1017   1.383       .  S
C1014      F1018   1.382       .  S
C1014      F1019   1.383       .  S
C1014      F1020   1.385       .  S
C1021      C1022   1.410       .  A
C1021      C1026   1.416       .  A
C1021      H1028   1.082       .  S
C1022      C1023   1.422       .  A
C1023      C1030   1.516       .  S
C1023      C1024   1.409       .  A
C1024      C1025   1.402       .  A
C1024      H1029   1.085       .  S
C1025      C1026   1.418       .  A
C1026      C1027   1.517       .  S
C1027      F1031   1.385       .  S
C1027      F1032   1.382       .  S
C1027      F1033   1.382       .  S
C1030      F1034   1.380       .  S
C1030      F1035   1.385       .  S
C1030      F1036   1.382       .  S
C1037      C1038   1.406   1_655  A
C1037      C1042   1.410       .  A
C1037      H1044   1.080   1_655  S
C1038      C1443   1.430   1_455  A
C1039      C1046   1.522   1_655  S
C1039      C1442   1.430   1_655  A
C1039      C1040   1.414       .  A
C1040      C1445   1.411   1_556  A
C1040      H1045   1.080       .  S
C1041      C1261   1.556       .  S
C1041      C1444   1.413       .  A
C1041      C1042   1.439       .  A
C1042      C1043   1.529       .  S
C1043      F1047   1.385       .  S
C1043      F1452   1.382       .  S
C1043      F1049   1.379       .  S
C1046      F1050   1.382       .  S
C1046      F1455   1.379       .  S
C1046      F1052   1.385   1_455  S
F1048      C1447   1.383       .  S
F1051      C1450   1.378       .  S
C1053      C1054   1.411       .  A
C1053      C1058   1.407       .  A
C1053      H1060   1.080       .  S
C1054      C1055   1.428       .  A
C1055      C1062   1.521       .  S
C1055      C1056   1.414       .  A
C1056      C1057   1.401       .  A
C1056      H1061   1.081       .  S
C1057      C1058   1.417       .  A
C1058      C1059   1.524       .  S
C1059      F1063   1.380       .  S
C1059      F1064   1.378   1_554  S
C1059      F1469   1.384       .  S
C1062      F1066   1.384       .  S
C1062      F1067   1.384       .  S
C1062      F1068   1.384       .  S
F1065      C1463   1.385       .  S
C1069      C1070   1.396       .  A
C1069      C1074   1.404       .  A
C1069      H1076   1.085       .  S
C1070      C1071   1.411       .  A
C1071      C1078   1.521       .  S
C1071      C1072   1.408       .  A
C1072      C1073   1.413       .  A
C1072      H1077   1.080       .  S
C1073      C1074   1.429       .  A
C1074      C1075   1.515       .  S
C1075      F1079   1.386       .  S
C1075      F1080   1.381       .  S
C1075      F1081   1.374       .  S
C1078      F1082   1.384       .  S
C1078      F1083   1.382       .  S
C1078      F1084   1.385       .  S
C1085      C1490   1.416       .  A
C1085      C1090   1.410       .  A
C1085      H1092   1.081       .  S
C1086      C1489   1.417       .  A
C1086      C1087   1.434   1_554  A
C1087      C1094   1.518       .  S
C1087      C1088   1.410       .  A
C1088      C1493   1.398   1_556  A
C1088      H1093   1.084       .  S
C1089      C1492   1.399       .  A
C1089      C1090   1.416       .  A
C1090      C1091   1.518       .  S
C1091      F1499   1.384       .  S
C1091      F1500   1.380       .  S
C1091      F1097   1.383       .  S
C1094      F1098   1.374       .  S
C1094      F1503   1.381       .  S
C1094      F1504   1.385       .  S
F1095      C1495   1.384       .  S
F1096      C1495   1.380       .  S
F1099      C1498   1.380       .  S
F1100      C1498   1.385       .  S
C1101      C1102   1.406       .  A
C1101      C1106   1.407       .  A
C1101      H1108   1.083       .  S
C1102      C1103   1.426       .  A
C1103      C1110   1.513       .  S
C1103      C1104   1.407       .  A
C1104      C1105   1.395       .  A
C1104      H1109   1.082       .  S
C1105      C1106   1.413       .  A
C1106      C1107   1.517       .  S
C1107      F1111   1.384       .  S
C1107      F1112   1.383       .  S
C1107      F1113   1.382       .  S
C1110      F1518   1.374       .  S
C1110      F1519   1.378       .  S
C1110      F1116   1.385       .  S
F1114      C1514   1.373   1_554  S
F1115      C1514   1.378   1_554  S
C1117      C1118   1.408       .  A
C1117      C1122   1.412       .  A
C1117      H1124   1.080       .  S
C1118      C1119   1.431       .  A
C1119      C1126   1.527       .  S
C1119      C1120   1.401       .  A
C1120      C1121   1.402       .  A
C1120      H1125   1.083       .  S
C1121      C1122   1.421       .  A
C1122      C1123   1.520       .  S
C1123      F1127   1.383       .  S
C1123      F1128   1.382       .  S
C1123      F1129   1.385       .  S
C1126      F1534   1.380       .  S
C1126      F1131   1.382       .  S
C1126      F1132   1.386       .  S
F1130      C1530   1.379       .  S
C1133      C1138   1.411   1_545  A
C1135      C1136   1.409       .  A
C1136      C1541   1.400       .  A
C1136      H1141   1.084       .  S
C1137      C1540   1.399   1_554  A
C1137      C1138   1.416       .  A
C1138      C1139   1.517       .  S
C1139      F1143   1.382       .  S
C1139      F1144   1.385       .  S
C1139      F1145   1.380       .  S
C1142      F1146   1.380       .  S
C1142      F1147   1.379       .  S
C1149      C1150   1.413       .  A
C1149      C1154   1.402       .  A
C1149      H1156   1.080       .  S
C1150      C1151   1.424       .  A
C1151      C1158   1.511       .  S
C1151      C1152   1.415       .  A
C1152      C1153   1.409       .  A
C1152      H1157   1.083       .  S
C1153      C1154   1.419       .  A
C1154      C1155   1.520       .  S
C1155      F1159   1.386       .  S
C1155      F1160   1.384       .  S
C1155      F1161   1.373       .  S
C1158      F1162   1.382       .  S
C1158      F1163   1.381       .  S
C1158      F1164   1.385       .  S
C1165      C1166   1.404       .  A
C1165      C1170   1.412       .  A
C1165      H1172   1.083       .  S
C1166      C1167   1.415       .  A
C1167      C1174   1.515       .  S
C1167      C1168   1.404       .  A
C1168      C1169   1.402       .  A
C1168      H1173   1.083       .  S
C1169      C1170   1.419       .  A
C1170      C1171   1.518       .  S
C1171      F1175   1.384       .  S
C1171      F1176   1.384       .  S
C1171      F1177   1.383       .  S
C1174      F1178   1.380       .  S
C1174      F1179   1.381       .  S
C1174      F1180   1.385       .  S
C1181      C1182   1.407   1_554  A
C1181      C1186   1.399   1_455  A
C1181      H1188   1.081       .  S
C1182      C1587   1.425       .  A
C1183      C1190   1.520       .  S
C1183      C1586   1.425       .  A
C1183      C1184   1.414   1_455  A
C1184      C1589   1.412       .  A
C1184      H1189   1.080       .  S
C1185      C1588   1.410       .  A
C1185      C1186   1.429   1_556  A
C1186      C1187   1.529       .  S
C1187      F1191   1.385   1_554  S
C1187      F1596   1.377   1_554  S
C1187      F1193   1.383       .  S
C1190      F1194   1.383       .  S
C1190      F1599   1.382       .  S
C1190      F1196   1.386   1_455  S
F1192      C1591   1.375       .  S
F1195      C1594   1.382       .  S
C1197      C1198   1.399       .  A
C1197      C1202   1.404       .  A
C1197      H1204   1.074       .  S
C1198      C1220   1.518       .  S
C1198      C1603   1.429       .  A
C1199      C1206   1.520       .  S
C1199      C1602   1.426       .  A
C1199      C1200   1.409       .  A
C1200      C1605   1.409       .  A
C1200      H1205   1.080       .  S
C1201      C1604   1.409       .  A
C1201      C1202   1.433       .  A
C1202      C1203   1.520       .  S
C1203      F1611   1.383   1_554  S
C1203      F1612   1.370       .  S
C1203      F1209   1.385       .  S
C1206      F1210   1.383       .  S
C1206      F1615   1.380       .  S
C1206      F1616   1.385       .  S
F1207      C1607   1.383       .  S
F1208      C1607   1.372       .  S
F1211      C1610   1.380       .  S
F1212      C1610   1.385       .  S
C1213      C1214   1.543       .  S
C1213      C1219   1.540       .  S
C1213      C1589   1.539       .  S
C1214      H1221   1.086       .  S
C1214      C1215   1.358       .  D
C1215      C1216   1.531       .  S
C1215      C1570   1.484       .  S
C1216      H1222   1.099       .  S
C1217      H1223   1.085       .  S
C1217      C1218   1.368       .  D
C1218      C1554   1.520       .  S
C1219      H1224   1.079       .  S
C1225      C1231   1.530       .  S
C1225      C1229   1.542       .  S
C1225      C1586   1.543       .  S
C1226      H1233   1.087       .  S
C1226      C1227   1.365       .  D
C1227      C1506   1.505       .  S
C1228      C1232   1.550       .  S
C1228      C1230   1.554       .  S
C1228      H1234   1.106       .  S
C1229      H1235   1.077       .  S
C1229      C1230   1.370       .  D
C1230      C1522   1.509       .  S
C1231      H1236   1.080       .  S
C1231      C1232   1.363       .  D
C1232      C1541   1.485       .  S
C1237      C1238   1.546       .  S
C1237      C1243   1.538       .  S
C1237      C1490   1.554       .  S
C1238      H1245   1.083       .  S
C1238      C1239   1.361       .  D
C1239      C1240   1.538       .  S
C1239      C1461   1.484       .  S
C1240      C1244   1.535       .  S
C1240      H1246   1.109       .  S
C1241      H1247   1.076       .  S
C1241      C1242   1.375       .  D
C1242      C1477   1.515       .  S
C1243      H1248   1.086       .  S
C1243      C1244   1.365       .  D
C1244      C1538   1.489       .  S
C1249      C1255   1.538       .  S
C1249      C1253   1.540   1_554  S
C1249      C1442   1.553   1_554  S
C1250      H1257   1.085       .  S
C1250      C1251   1.367       .  D
C1251      C1410   1.495       .  S
C1252      C1256   1.551       .  S
C1252      C1254   1.548   1_554  S
C1252      H1258   1.110       .  S
C1253      H1259   1.082       .  S
C1253      C1254   1.371       .  D
C1254      C1426   1.509       .  S
C1255      H1260   1.083       .  S
C1255      C1256   1.364       .  D
C1256      C1493   1.495       .  S
C1261      C1267   1.548       .  S
C1261      C1265   1.540       .  S
C1262      H1269   1.087       .  S
C1262      C1263   1.367       .  D
C1263      C1362   1.501       .  S
C1264      C1268   1.550       .  S
C1264      C1266   1.547       .  S
C1264      H1270   1.103       .  S
C1265      H1271   1.079       .  S
C1265      C1266   1.367       .  D
C1266      C1378   1.505       .  S
C1267      C1268   1.374       .  D
C1268      C1394   1.497       .  S
C1273      C1274   1.532       .  S
C1273      C1279   1.548       .  S
C1273      C1605   1.547       .  S
C1274      H1281   1.087       .  S
C1274      C1275   1.361       .  D
C1275      C1276   1.534       .  S
C1275      C1330   1.485       .  S
C1276      C1280   1.540       .  S
C1276      H1282   1.108       .  S
C1277      H1283   1.069       .  S
C1277      C1278   1.376       .  D
C1278      C1346   1.516       .  S
C1279      H1284   1.083       .  S
C1279      C1280   1.365       .  D
C1280      C1397   1.489       .  S
O1285      C1300   1.262       .  A
O1285     Al1293   1.913       .  S
C1286      O1296   1.264       .  A
C1286      O1287   1.257       .  A
C1286      C1413   1.508       .  S
O1287     Al1289   1.909       .  S
O1288      C1290   1.262       .  A
O1288     Al1289   1.894       .  S
Al1289     O1297   1.914       .  S
Al1289     O1299   1.883       .  S
Al1289     O1298   1.777       .  S
C1290      O1303   1.259       .  A
C1290      C1333   1.468       .  S
O1291      C1301   1.262       .  A
O1291     Al1293   1.907       .  S
O1292      C1305   1.262       .  A
O1292     Al1302   1.907       .  S
Al1293     O1306   1.896       .  S
Al1293     O1303   1.909       .  S
Al1293     O1298   1.798       .  S
O1294      C1301   1.266       .  A
O1294     Al1302   1.905       .  S
O1295      C1304   1.265       .  A
O1295     Al1302   1.927       .  S
O1296     Al1302   1.920       .  S
O1297      C1304   1.263       .  A
O1298     Al1302   1.777       .  S
O1299      C1300   1.261       .  A
C1300      C1349   1.487       .  S
C1301      C1525   1.495       .  S
C1304      C1429   1.488       .  S
C1305      O1306   1.256       .  A
C1305      C1509   1.469       .  S
O1307      C1322   1.257       .  A
O1307     Al1315   1.896       .  S
C1308      O1318   1.260       .  A
C1308      O1309   1.262       .  A
C1308      C1573   1.483       .  S
O1309     Al1311   1.916       .  S
O1310      C1312   1.261       .  A
O1310     Al1311   1.882       .  S
Al1311     O1319   1.897       .  S
Al1311     O1321   1.910       .  S
Al1311     O1320   1.784       .  S
C1312      O1325   1.266       .  A
C1312      C1458   1.499       .  S
O1313      C1323   1.259       .  A
O1313     Al1315   1.896       .  S
O1314      C1327   1.258       .  A
O1314     Al1324   1.882       .  S
Al1315     O1328   1.931       .  S
Al1315     O1325   1.936       .  S
Al1315     O1320   1.789       .  S
O1316      C1323   1.260       .  A
O1316     Al1324   1.911       .  S
O1317      C1326   1.263       .  A
O1317     Al1324   1.925       .  S
O1318     Al1324   1.907       .  S
O1319      C1326   1.262       .  A
O1320     Al1324   1.777       .  S
O1321      C1322   1.261       .  A
C1322      C1474   1.477       .  S
C1323      C1381   1.471       .  S
C1326      C1557   1.499       .  S
C1327      O1328   1.265       .  A
C1327      C1365   1.500       .  S
C1329      C1330   1.403       .  A
C1329      C1334   1.406       .  A
C1329      H1336   1.083       .  S
C1330      C1331   1.421       .  A
C1331      C1338   1.512       .  S
C1331      C1332   1.401       .  A
C1332      C1333   1.395       .  A
C1332      H1337   1.084       .  S
C1333      C1334   1.417       .  A
C1334      C1335   1.518       .  S
C1335      F1339   1.385       .  S
C1335      F1340   1.383       .  S
C1335      F1341   1.382       .  S
C1338      F1344   1.385       .  S
C1345      C1346   1.417       .  A
C1345      C1350   1.412       .  A
C1345      H1352   1.079       .  S
C1346      C1347   1.431       .  A
C1347      C1354   1.520       .  S
C1347      C1348   1.397       .  A
C1348      C1349   1.400       .  A
C1348      H1353   1.081       .  S
C1349      C1350   1.413       .  A
C1350      C1351   1.519       .  S
C1351      F1355   1.384       .  S
C1351      F1356   1.383       .  S
C1351      F1357   1.383       .  S
C1354      F1358   1.369       .  S
C1354      F1359   1.382       .  S
C1354      F1360   1.385       .  S
C1361      C1362   1.401       .  A
C1361      C1366   1.396       .  A
C1361      H1368   1.079       .  S
C1362      C1363   1.419       .  A
C1363      C1370   1.517       .  S
C1363      C1364   1.416       .  A
C1364      C1365   1.413       .  A
C1364      H1369   1.082       .  S
C1365      C1366   1.423       .  A
C1366      C1367   1.518       .  S
C1367      F1371   1.385       .  S
C1367      F1372   1.380       .  S
C1367      F1373   1.385       .  S
C1370      F1374   1.380       .  S
C1370      F1375   1.381       .  S
C1370      F1376   1.385       .  S
C1377      C1378   1.409       .  A
C1377      C1382   1.407       .  A
C1377      H1384   1.082       .  S
C1378      C1379   1.427       .  A
C1379      C1386   1.511       .  S
C1379      C1380   1.406       .  A
C1380      C1381   1.393       .  A
C1380      H1385   1.084       .  S
C1381      C1382   1.412       .  A
C1382      C1383   1.519       .  S
C1383      F1387   1.385       .  S
C1383      F1388   1.383       .  S
C1383      F1389   1.382       .  S
C1386      F1392   1.385       .  S
C1393      C1398   1.411       .  A
C1393      H1400   1.083       .  S
C1395      C1396   1.411       .  A
C1396      C1397   1.401       .  A
C1396      H1401   1.083       .  S
C1398      C1399   1.519       .  S
C1399      F1403   1.385       .  S
C1399      F1404   1.380       .  S
C1399      F1405   1.381       .  S
C1402      F1406   1.380       .  S
C1402      F1407   1.381       .  S
C1409      C1410   1.400       .  A
C1409      C1414   1.414       .  A
C1409      H1416   1.081       .  S
C1410      C1411   1.420       .  A
C1411      C1418   1.520       .  S
C1411      C1412   1.408       .  A
C1412      C1413   1.407       .  A
C1412      H1417   1.084       .  S
C1413      C1414   1.433       .  A
C1414      C1415   1.522       .  S
C1415      F1419   1.385       .  S
C1415      F1420   1.384       .  S
C1415      F1421   1.383       .  S
C1418      F1422   1.382       .  S
C1418      F1423   1.381       .  S
C1418      F1424   1.385       .  S
C1425      C1426   1.411       .  A
C1425      C1430   1.416       .  A
C1425      H1432   1.082       .  S
C1426      C1427   1.425       .  A
C1427      C1434   1.518       .  S
C1427      C1428   1.409       .  A
C1428      C1429   1.400       .  A
C1428      H1433   1.085       .  S
C1429      C1430   1.416       .  A
C1430      C1431   1.517       .  S
C1431      F1435   1.384       .  S
C1431      F1436   1.383       .  S
C1431      F1437   1.383       .  S
C1434      F1438   1.381       .  S
C1434      F1439   1.385       .  S
C1434      F1440   1.382       .  S
C1441      C1442   1.407   1_654  A
C1441      C1446   1.410       .  A
C1441      H1448   1.082   1_655  S
C1443      C1450   1.523   1_655  S
C1443      C1444   1.415       .  A
C1444      H1449   1.081       .  S
C1445      C1446   1.437       .  A
C1446      C1447   1.528       .  S
C1447      F1451   1.385   1_554  S
C1447      F1453   1.374       .  S
C1450      F1454   1.383       .  S
C1450      F1456   1.385   1_455  S
C1457      C1458   1.410       .  A
C1457      C1462   1.404       .  A
C1457      H1464   1.082       .  S
C1458      C1459   1.427       .  A
C1459      C1466   1.520       .  S
C1459      C1460   1.413       .  A
C1460      C1461   1.401       .  A
C1460      H1465   1.083       .  S
C1461      C1462   1.416       .  A
C1462      C1463   1.523       .  S
C1463      F1467   1.381       .  S
C1463      F1468   1.378       .  S
C1466      F1470   1.384       .  S
C1466      F1471   1.383       .  S
C1466      F1472   1.385       .  S
C1473      C1474   1.395       .  A
C1473      C1478   1.405       .  A
C1473      H1480   1.084       .  S
C1474      C1475   1.411       .  A
C1475      C1482   1.521       .  S
C1475      C1476   1.409       .  A
C1476      C1477   1.415       .  A
C1476      H1481   1.080       .  S
C1477      C1478   1.433       .  A
C1478      C1479   1.517       .  S
C1479      F1483   1.385       .  S
C1479      F1484   1.381       .  S
C1479      F1485   1.374       .  S
C1482      F1486   1.384       .  S
C1482      F1487   1.382       .  S
C1482      F1488   1.385       .  S
C1489      C1494   1.414       .  A
C1489      H1496   1.079       .  S
C1490      C1491   1.430       .  A
C1491      C1498   1.517       .  S
C1491      C1492   1.408       .  A
C1492      H1497   1.084       .  S
C1493      C1494   1.417       .  A
C1494      C1495   1.518       .  S
C1495      F1501   1.382       .  S
C1498      F1502   1.376       .  S
C1505      C1506   1.411       .  A
C1505      C1510   1.406       .  A
C1505      H1512   1.083       .  S
C1506      C1507   1.431       .  A
C1507      C1514   1.514       .  S
C1507      C1508   1.408       .  A
C1508      C1509   1.392       .  A
C1508      H1513   1.083       .  S
C1509      C1510   1.410       .  A
C1510      C1511   1.518       .  S
C1511      F1515   1.384       .  S
C1511      F1516   1.383       .  S
C1511      F1517   1.382       .  S
C1514      F1520   1.385       .  S
C1521      C1522   1.411       .  A
C1521      C1526   1.413       .  A
C1521      H1528   1.079       .  S
C1522      C1523   1.433       .  A
C1523      C1530   1.528       .  S
C1523      C1524   1.402       .  A
C1524      C1525   1.402       .  A
C1524      H1529   1.082       .  S
C1525      C1526   1.420       .  A
C1526      C1527   1.521       .  S
C1527      F1531   1.383       .  S
C1527      F1532   1.383       .  S
C1527      F1533   1.385       .  S
C1530      F1535   1.382       .  S
C1530      F1536   1.385       .  S
C1537      C1542   1.411   1_545  A
C1539      C1540   1.411       .  A
C1540      H1545   1.084       .  S
C1541      C1542   1.417       .  A
C1542      C1543   1.518       .  S
C1543      F1547   1.382       .  S
C1543      F1548   1.384       .  S
C1543      F1549   1.381       .  S
C1546      F1550   1.381       .  S
C1546      F1551   1.380       .  S
C1553      C1554   1.414       .  A
C1553      C1558   1.401       .  A
C1553      H1560   1.079       .  S
C1554      C1555   1.424       .  A
C1555      C1562   1.512       .  S
C1555      C1556   1.414       .  A
C1556      C1557   1.409       .  A
C1556      H1561   1.083       .  S
C1557      C1558   1.418       .  A
C1558      C1559   1.522       .  S
C1559      F1563   1.385       .  S
C1559      F1564   1.384       .  S
C1559      F1565   1.374       .  S
C1562      F1566   1.381       .  S
C1562      F1567   1.381       .  S
C1562      F1568   1.385       .  S
C1569      C1570   1.403       .  A
C1569      C1574   1.411       .  A
C1569      H1576   1.083       .  S
C1570      C1571   1.415       .  A
C1571      C1578   1.517       .  S
C1571      C1572   1.406       .  A
C1572      C1573   1.405       .  A
C1572      H1577   1.083       .  S
C1573      C1574   1.418       .  A
C1574      C1575   1.518       .  S
C1575      F1579   1.385       .  S
C1575      F1580   1.383       .  S
C1575      F1581   1.382       .  S
C1578      F1582   1.381       .  S
C1578      F1583   1.382       .  S
C1578      F1584   1.385       .  S
C1585      C1586   1.403       .  A
C1585      C1590   1.399   1_455  A
C1585      H1592   1.081       .  S
C1587      C1594   1.520       .  S
C1587      C1588   1.410   1_455  A
C1588      H1593   1.079       .  S
C1589      C1590   1.433       .  A
C1590      C1591   1.530       .  S
C1591      F1595   1.385       .  S
C1591      F1597   1.383       .  S
C1594      F1598   1.382       .  S
C1594      F1600   1.386   1_455  S
C1601      C1602   1.400       .  A
C1601      C1606   1.404       .  A
C1601      H1608   1.075       .  S
C1603      C1610   1.522       .  S
C1603      C1604   1.408       .  A
C1604      H1609   1.078       .  S
C1605      C1606   1.431       .  A
C1606      C1607   1.519       .  S
C1607      F1613   1.385       .  S
C1610      F1614   1.383       .  S
