geometry optimzed in LAMMPS
_audit_creation_date              2020-11-30 
_audit_creation_method            'lammps2cif' 
_symmetry_space_group_name_H-M    'P1' 
_symmetry_Int_Tables_number       1 
_symmetry_cell_setting            triclinic 
loop_ 
_symmetry_equiv_pos_as_xyz 
  x,y,z 
_cell_length_a                    47.77988992 
_cell_length_b                    47.68776540757494 
_cell_length_c                    30.19776847291468 
_cell_angle_alpha                 87.69572552968796 
_cell_angle_beta                  90.45618874553246 
_cell_angle_gamma                 91.85258377345427 
loop_ 
_atom_site_label 
_atom_site_type_symbol 
_atom_site_fract_x 
_atom_site_fract_y 
_atom_site_fract_z 
_atom_site_charge 
C1          C  0.24935176  0.47275185  0.07048914    -0.00200
O2          O  0.27317073  0.43792783  0.11831874    -0.55600
C3          C  0.32175271  0.43205983  0.22472221     0.77100
O4          O  0.36716627  0.42015056  0.09819966    -0.56700
C5          C  0.27423821  0.45531382  0.08529798     0.77000
C6          C  0.34472779  0.49387054  0.12849610     0.79400
Cd7        Cd  0.32478681  0.43763163  0.12927243     1.37500
O8          O  0.30051647  0.42474108  0.20183222    -0.55600
O9          O  0.34452175  0.47848931  0.16348832    -0.54400
C10         C  0.36066154  0.39448894  0.10481876     0.79400
O11         O  0.34034529  0.48209605  0.09214144    -0.56700
O12         O  0.34332879  0.44042982  0.20352801    -0.55200
O13         O  0.29821065  0.46017086  0.06874598    -0.55200
O14         O  0.33554611  0.38836814  0.11527364    -0.54400
O15         O  0.22129284  0.46333577  0.13689678    -0.55600
C16         C  0.17342599  0.43827902  0.23341041     0.77100
O17         O  0.15364536  0.48921853  0.09518358    -0.56700
C18         C  0.22329323  0.46212322  0.09528352     0.77000
C19         C  0.13348423  0.40324758  0.11464062     0.79400
Cd20       Cd  0.17113553  0.44815015  0.13923400     1.37500
O21         O  0.19393482  0.43144833  0.21010552    -0.55600
O22         O  0.15880413  0.39818976  0.12380568    -0.54400
C23         C  0.15353801  0.50428327  0.12872324     0.79400
O24         O  0.12702766  0.42874851  0.11178168    -0.56700
O25         O  0.15245567  0.44798441  0.21292760    -0.55200
O26         O  0.20221280  0.45164702  0.07535305    -0.55200
O27         O  0.15768167  0.49226910  0.16605775    -0.54400
C28         C  0.24730497  0.05548303  0.06247048    -0.00200
O29         O  0.30300794  0.09562993  0.20029670    -0.55600
C30         C  0.27329871  0.06642441  0.08663730     0.77100
O31         O  0.36876321  0.10245881  0.09858755    -0.56700
C32         C  0.32359902  0.08792790  0.22418826     0.77000
C33         C  0.34339613  0.02547419  0.12370794     0.79400
Cd34       Cd  0.32561364  0.08127251  0.13021351     1.37500
O35         O  0.27590747  0.06389903  0.12830541    -0.55600
O36         O  0.34149825  0.03717108  0.16023949    -0.54400
C37         C  0.36302849  0.12775803  0.10432855     0.79400
O38         O  0.34175966  0.04092842  0.08878726    -0.56700
O39         O  0.29356520  0.07882433  0.06623142    -0.55200
O40         O  0.34444138  0.07880420  0.20434123    -0.55200
O41         O  0.33832650  0.13225995  0.11663450    -0.54400
O42         O  0.19569384  0.10343560  0.18943414    -0.55600
C43         C  0.22234450  0.07305694  0.07449137     0.77100
O44         O  0.15389830  0.04694894  0.08588210    -0.56700
C45         C  0.17478018  0.09455323  0.21233739     0.77000
C46         C  0.13434720  0.13437848  0.09003561     0.79400
Cd47       Cd  0.17202642  0.09080735  0.11732915     1.37500
O48         O  0.22365743  0.09079221  0.10488144    -0.55600
O49         O  0.15957190  0.14046700  0.09995707    -0.54400
C50         C  0.15390098  0.03405155  0.12341887     0.79400
O51         O  0.12815487  0.10867403  0.08581518    -0.56700
O52         O  0.19817948  0.06811280  0.05872365    -0.55200
O53         O  0.15346180  0.08596758  0.19121965    -0.52000
O54         O  0.15782352  0.04841751  0.15718747    -0.54400
C55         C  0.25331374  0.46932624  0.43832122    -0.00200
O56         O  0.27533006  0.43909838  0.38358562    -0.55600
C57         C  0.32215710  0.43228836  0.27339128     0.77100
O58         O  0.34895923  0.47667520  0.40583243    -0.56700
C59         C  0.27785636  0.45573705  0.41531601     0.77000
C60         C  0.36145888  0.39126885  0.39746051     0.79400
Cd61       Cd  0.32671589  0.43726185  0.36827176     1.37500
O62         O  0.30136496  0.42488731  0.29754084    -0.55600
O63         O  0.33569644  0.38657768  0.38950663    -0.54400
C64         C  0.34730406  0.49292829  0.37180009     0.79400
O65         O  0.36966467  0.41668870  0.39694503    -0.56700
O66         O  0.34398236  0.44102301  0.29313584    -0.55200
O67         O  0.30273044  0.46097270  0.42755280    -0.55200
O68         O  0.34146232  0.48205452  0.33517679    -0.54400
O69         O  0.19494577  0.43069072  0.30527564    -0.55600
C70         C  0.22497118  0.45832946  0.42014287     0.77100
O71         O  0.15064503  0.48500749  0.40495656    -0.56700
C72         C  0.17361599  0.43688378  0.28198748     0.77000
C73         C  0.13509159  0.39648210  0.40421907     0.79400
Cd74       Cd  0.17191169  0.44271439  0.37655609     1.37500
O75         O  0.22302535  0.44243749  0.38753023    -0.55600
O76         O  0.15989881  0.39221476  0.39249466    -0.54400
C77         C  0.15313614  0.49806692  0.36769772     0.79400
O78         O  0.12906668  0.42166844  0.41002877    -0.56700
O79         O  0.20178275  0.46495418  0.43599531    -0.55200
O80         O  0.15216079  0.44382045  0.30260059    -0.55200
O81         O  0.16056734  0.48437437  0.33523316    -0.54400
C82         C  0.24472280  0.05327115  0.43338485    -0.00200
O83         O  0.19565779  0.09882187  0.28493100    -0.55600
C84         C  0.22011423  0.06503960  0.40667692     0.77100
O85         O  0.12863640  0.09896900  0.38187824    -0.56700
C86         C  0.17471753  0.09218888  0.26094507     0.77000
C87         C  0.15477666  0.02477450  0.35839231     0.79400
Cd88       Cd  0.17186141  0.08141171  0.35513091     1.37500
O89         O  0.22257410  0.08013752  0.37123223    -0.55600
O90         O  0.16378288  0.03696322  0.32310834    -0.54400
C91         C  0.13651320  0.12450341  0.38130229     0.79400
O92         O  0.14897620  0.03984477  0.39041009    -0.56700
O93         O  0.19533404  0.06026784  0.41983142    -0.55200
O94         O  0.15331008  0.08179542  0.28070288    -0.55200
O95         O  0.16221338  0.13013960  0.37431664    -0.54400
O96         O  0.30282064  0.09418006  0.29564529    -0.55600
C97         C  0.27296202  0.06324836  0.41311397     0.77100
O98         O  0.34748829  0.03585647  0.39902501    -0.56700
C99         C  0.32363112  0.08758490  0.27279498     0.77000
C100        C  0.36384516  0.12252134  0.39304881     0.79400
Cd101      Cd  0.32557191  0.07831883  0.36761388     1.37500
O102        O  0.27468165  0.07748697  0.37687039    -0.55600
O103        O  0.33927401  0.12812161  0.38035082    -0.54400
C104        C  0.34406488  0.02283717  0.36353790     0.79400
O105        O  0.36891231  0.09692927  0.40036804    -0.56700
O106        O  0.29622152  0.05777808  0.43122470    -0.55200
O107        O  0.34472983  0.07873222  0.29391147    -0.55200
O108        O  0.33493736  0.03639473  0.33005534    -0.54400
C109        C  0.45863643  0.26912821  0.06614373    -0.00200
O110        O  0.42707625  0.28803608  0.12119783    -0.55600
C111        C  0.41753762  0.33361718  0.23302936     0.77100
O112        O  0.46778986  0.36416060  0.11004417    -0.56700
C113        C  0.44409838  0.29235784  0.08930834     0.77000
C114        C  0.38245088  0.37378736  0.10788794     0.79400
Cd115      Cd  0.42605308  0.33860849  0.13913033     1.37500
O116        O  0.41090799  0.31287453  0.20955895    -0.55600
O117        O  0.37708605  0.34818165  0.11804970    -0.54400
C118        C  0.48227979  0.35695894  0.14366866     0.79400
O119        O  0.40791582  0.38172164  0.10679425    -0.56700
O120        O  0.42595149  0.35599188  0.21272511    -0.55200
O121        O  0.44945843  0.31773631  0.07813658    -0.55200
O122        O  0.46959604  0.34592227  0.17685725    -0.54400
O123        O  0.42098290  0.20844525  0.19741561    -0.55600
C124        C  0.44819513  0.24082649  0.08627044     0.77100
O125        O  0.47223511  0.17280387  0.07994389    -0.56700
C126        C  0.42602465  0.18652171  0.22094678     0.77000
C127        C  0.38535466  0.14978466  0.10297015     0.79400
Cd128      Cd  0.43239894  0.18596368  0.12588251     1.37500
O129        O  0.43440192  0.22273112  0.06447261    -0.55600
O130        O  0.38132972  0.17479180  0.11360753    -0.54400
C131        C  0.48685639  0.16600127  0.11354158     0.79400
O132        O  0.41044220  0.14346862  0.09651480    -0.56700
O133        O  0.45230115  0.23438090  0.12678438    -0.55200
O134        O  0.43249909  0.16508639  0.20048860    -0.55200
O135        O  0.47470667  0.16410293  0.15054186    -0.54400
C136        C  0.04171126  0.27001909  0.05772898    -0.00200
O137        O  0.08317306  0.21351767  0.19247731    -0.55600
C138        C  0.05109513  0.24238427  0.07919914     0.77100
O139        O  0.08673268  0.14778981  0.08776879    -0.56700
C140        C  0.07911694  0.19120560  0.21612898     0.77000
C141        C  0.01361734  0.16714541  0.12562769     0.79400
Cd142      Cd  0.06861323  0.18973898  0.12209271     1.37500
O143        O  0.07643485  0.23846697  0.09029171    -0.55600
O144        O  0.02753203  0.17278306  0.16012428    -0.54400
C145        C  0.11231245  0.15518757  0.09075231     0.79400
O146        O  0.02659369  0.16759958  0.08901018    -0.56700
O147        O  0.03440166  0.22177672  0.08609452    -0.55200
O148        O  0.07212107  0.16937168  0.19598383    -0.55200
O149        O  0.11756966  0.18028886  0.10087385    -0.54400
O150        O  0.07857333  0.31658675  0.20921288    -0.55600
C151        C  0.05054068  0.29434726  0.08654595     0.77100
O152        O  0.02471360  0.36281397  0.10278526    -0.56700
C153        C  0.07377937  0.33758482  0.23231316     0.77000
C154        C  0.11149427  0.38114313  0.11374088     0.79400
Cd155      Cd  0.06632379  0.34269581  0.13804902     1.37500
O156        O  0.06351736  0.29133105  0.12325493    -0.55600
O157        O  0.11636213  0.35537623  0.12065715    -0.54400
C158        C  0.01078565  0.36070149  0.13829544     0.79400
O159        O  0.08612571  0.38767585  0.11156830    -0.56700
O160        O  0.04642104  0.31937810  0.07342561    -0.55200
O161        O  0.06689633  0.35988751  0.21164933    -0.55200
O162        O  0.02369448  0.35403234  0.17359104    -0.54400
C163        C  0.46202357  0.25564607  0.43653409    -0.00200
O164        O  0.43117644  0.22939175  0.38527903    -0.55600
C165        C  0.42599299  0.18544315  0.26967498     0.77100
O166        O  0.47367634  0.15642695  0.39837473    -0.56700
C167        C  0.45111866  0.22931429  0.41335539     0.77000
C168        C  0.38664659  0.14381163  0.39247586     0.79400
Cd169      Cd  0.43315983  0.17973671  0.36490018     1.37500
O170        O  0.42542279  0.20709644  0.29272928    -0.55600
O171        O  0.38284713  0.16911719  0.38038069    -0.54400
C172        C  0.48731824  0.15929536  0.36258083     0.79400
O173        O  0.41170163  0.13672830  0.39817795    -0.56700
O174        O  0.42836054  0.16217633  0.29066781    -0.55200
O175        O  0.46157423  0.20565278  0.42127073    -0.55200
O176        O  0.47424580  0.16684061  0.32783979    -0.54400
O177        O  0.41052288  0.31055295  0.30499481    -0.55600
C178        C  0.44578426  0.28173205  0.42047683     0.77100
O179        O  0.46840609  0.35499691  0.40727635    -0.56700
C180        C  0.41778954  0.33225940  0.28159109     0.77000
C181        C  0.38209185  0.36903364  0.40057116     0.79400
Cd182      Cd  0.42592455  0.33284428  0.37591848     1.37500
O183        O  0.42612476  0.28117430  0.39189068    -0.55600
O184        O  0.37603369  0.34368850  0.39246854    -0.54400
C185        C  0.48187924  0.35332993  0.37150408     0.79400
O186        O  0.40775877  0.37541847  0.40534923    -0.56700
O187        O  0.45287416  0.30592995  0.43294684    -0.55200
O188        O  0.42724477  0.35317263  0.30200463    -0.55200
O189        O  0.46828933  0.34632527  0.33740321    -0.54400
C190        C  0.04774634  0.25400954  0.43928660    -0.00200
O191        O  0.06933678  0.28538527  0.38172234    -0.55600
C192        C  0.07426724  0.33669851  0.28083178     0.77100
O193        O  0.02615975  0.35211349  0.41308971    -0.56700
C194        C  0.05490390  0.28259056  0.41677705     0.77000
C195        C  0.11310650  0.37429538  0.40380456     0.79400
Cd196      Cd  0.06809209  0.33741299  0.37524428     1.37500
O197        O  0.07884103  0.31464713  0.30425324    -0.55600
O198        O  0.11797724  0.34950899  0.39330117    -0.54400
C199        C  0.01239161  0.35528812  0.37736899     0.79400
O200        O  0.08772205  0.38022027  0.40762594    -0.56700
O201        O  0.06847149  0.35838796  0.30122196    -0.55200
O202        O  0.04803817  0.30519554  0.43365856    -0.55200
O203        O  0.02550712  0.35398451  0.34141557    -0.54400
O204        O  0.08632337  0.21071363  0.28835499    -0.55600
C205        C  0.05863474  0.23096770  0.41084240     0.77100
O206        O  0.03330080  0.16097655  0.40025115    -0.56700
C207        C  0.08001652  0.18993105  0.26473647     0.77000
C208        C  0.11575057  0.14618019  0.38213644     0.79400
Cd209      Cd  0.07263725  0.18350381  0.35910459     1.37500
O210        O  0.07642629  0.21336977  0.42457706    -0.55600
O211        O  0.12192811  0.17185014  0.37325341    -0.54400
C212        C  0.01791313  0.16095528  0.36595697     0.79400
O213        O  0.09010251  0.13925229  0.38608020    -0.56700
O214        O  0.04980927  0.22812663  0.37162860    -0.55200
O215        O  0.07256685  0.16730951  0.28502015    -0.55200
O216        O  0.02935779  0.16671047  0.32908451    -0.54400
C217        C  0.49346897  0.26197613  0.42514288    -0.14200
C218        C  0.01599002  0.24720873  0.44525666    -0.29400
H219        H  0.49855736  0.28081368  0.40503155     0.14800
H220        H  0.01094182  0.22802299  0.46449312     0.15400
C221        C  0.06292982  0.25331985  0.48445260    -0.14200
C222        C  0.05746675  0.27447937  0.01396225    -0.29400
H223        H  0.08495894  0.24933076  0.47934157     0.14800
H224        H  0.07433293  0.29043095  0.01413449     0.15400
C225        C  0.45149738  0.27241618  0.01649822    -0.14200
C226        C  0.46023852  0.24959322  0.48687211    -0.29400
H227        H  0.43999873  0.29063883  0.00541083     0.14800
H228        H  0.47045511  0.23097742  0.49999381     0.15400
C229        C  0.49073463  0.27415591  0.07386569    -0.14200
C230        C  0.00972620  0.27085217  0.04859161    -0.29400
H231        H  0.49729115  0.29273519  0.09131008     0.14800
H232        H  0.00382436  0.27735288  0.01529055     0.15400
C233        C  0.25710371  0.50189145  0.42975470    -0.14200
C234        C  0.24030222  0.02057592  0.43671630    -0.29400
H235        H  0.27644944  0.50936277  0.41408714     0.14800
H236        H  0.22049275  0.01344018  0.45096472     0.15400
C237        C  0.25420454  0.05450849  0.01316667    -0.14200
C238        C  0.24195174  0.06428171  0.48008289    -0.29400
H239        H  0.27162293  0.04148918  0.00542413     0.14800
H240        H  0.22553510  0.07878089  0.48640592     0.15400
C241        C  0.24261808  0.47323716  0.02074070    -0.14200
C242        C  0.25680285  0.46150233  0.48802630    -0.29400
H243        H  0.22503643  0.48577872  0.01085772     0.14800
H244        H  0.27365855  0.44783259  0.49790071     0.15400
C245        C  0.25749547  0.50337346  0.08086174    -0.14200
C246        C  0.23962888  0.02460940  0.07626254    -0.29400
H247        H  0.27965892  0.50932183  0.07990205     0.14800
H248        H  0.21773500  0.01898775  0.08240563     0.15400
C249        C  0.24926098  0.47199008  0.56996965    -0.00200
O250        O  0.27292265  0.43625595  0.61632344    -0.55600
C251        C  0.32189783  0.42984316  0.72428037     0.77100
O252        O  0.36615864  0.41775903  0.59654087    -0.56700
C253        C  0.27415165  0.45437987  0.58427807     0.77000
C254        C  0.34424235  0.49276246  0.62807739     0.79400
Cd255      Cd  0.32438469  0.43609333  0.62859904     1.37500
O256        O  0.30031958  0.42349866  0.70145867    -0.55600
O257        O  0.34185272  0.47790990  0.66347745    -0.54400
C258        C  0.35923465  0.39211003  0.60222944     0.79400
O259        O  0.34190976  0.48033763  0.59189214    -0.56700
O260        O  0.34374737  0.43722039  0.70294153    -0.55200
O261        O  0.29821748  0.45965999  0.56837215    -0.55200
O262        O  0.33417246  0.38637217  0.61342204    -0.54400
O263        O  0.22177439  0.46301276  0.63711035    -0.55600
C264        C  0.17488854  0.43445630  0.73504408     0.77100
O265        O  0.15350148  0.48632356  0.59769314    -0.56700
C266        C  0.22351651  0.46129155  0.59551909     0.77000
C267        C  0.13498317  0.40173524  0.61459907     0.79400
Cd268      Cd  0.17208707  0.44619045  0.64112467     1.37500
O269        O  0.19559110  0.42871067  0.71131332    -0.55600
O270        O  0.15999053  0.39650981  0.62556678    -0.54400
C271        C  0.15212121  0.50152902  0.63086178     0.79400
O272        O  0.12871112  0.42724777  0.61086102    -0.56700
O273        O  0.15364158  0.44394540  0.71506995    -0.55200
O274        O  0.20258712  0.44998873  0.57638177    -0.55200
O275        O  0.15638948  0.48997361  0.66856607    -0.54400
C276        C  0.24816235  0.05382527  0.56352048    -0.00200
O277        O  0.30364166  0.09598417  0.70525526    -0.55600
C278        C  0.27370437  0.06393220  0.58971262     0.77100
O279        O  0.36956192  0.09829289  0.60844540    -0.56700
C280        C  0.32181787  0.08431854  0.73011054     0.77000
C281        C  0.34405578  0.02244467  0.63110521     0.79400
Cd282      Cd  0.32519299  0.07777525  0.63670501     1.37500
O283        O  0.27497752  0.06161635  0.63157123    -0.55600
O284        O  0.34067102  0.03379487  0.66762850    -0.54400
C285        C  0.36383750  0.12357137  0.61428197     0.79400
O286        O  0.34318040  0.03806557  0.59626745    -0.56700
O287        O  0.29496970  0.07538886  0.57076575    -0.55200
O288        O  0.34036296  0.07074097  0.71147936    -0.55200
O289        O  0.33895429  0.12822930  0.62531394    -0.54400
O290        O  0.19689373  0.09981857  0.68562541    -0.55600
C291        C  0.22324843  0.07177690  0.57408217     0.77100
O292        O  0.15560853  0.04584279  0.57941387    -0.56700
C293        C  0.17537981  0.09286217  0.70847348     0.77000
C294        C  0.13708342  0.13578271  0.58736971     0.79400
Cd295      Cd  0.17231111  0.08971169  0.61355337     1.37500
O296        O  0.22404250  0.08931750  0.60472824    -0.55600
O297        O  0.16213698  0.14046206  0.59964356    -0.54400
C298        C  0.15279766  0.03280692  0.61659976     0.79400
O299        O  0.13035820  0.11064645  0.57928489    -0.56700
O300        O  0.19949470  0.06740102  0.55643046    -0.55200
O301        O  0.15344475  0.08594318  0.68736841    -0.52000
O302        O  0.15420843  0.04719362  0.65077249    -0.54400
C303        C  0.25372853  0.46861197  0.93916727    -0.00200
O304        O  0.27551452  0.44007577  0.88231699    -0.55600
C305        C  0.32222353  0.43044589  0.77299797     0.77100
O306        O  0.34865829  0.47660294  0.90338507    -0.56700
C307        C  0.27817636  0.45503924  0.91605750     0.77000
C308        C  0.36023502  0.39154488  0.89690306     0.79400
Cd309      Cd  0.32610797  0.43682238  0.86771826     1.37500
O310        O  0.30133889  0.42325612  0.79713789    -0.55600
O311        O  0.33468445  0.38663238  0.88775464    -0.54400
C312        C  0.34588899  0.49237376  0.86903678     0.79400
O313        O  0.36826487  0.41695847  0.89830020    -0.56700
O314        O  0.34393389  0.43953787  0.79272485    -0.55200
O315        O  0.30300909  0.45889763  0.92958189    -0.55200
O316        O  0.33947921  0.48102495  0.83303997    -0.54400
O317        O  0.19686656  0.42715808  0.80665102    -0.55600
C318        C  0.22556239  0.45661979  0.92183181     0.77100
O319        O  0.14978819  0.48041150  0.90380064    -0.56700
C320        C  0.17518178  0.43245169  0.78361441     0.77000
C321        C  0.13661629  0.39284744  0.90469554     0.79400
Cd322      Cd  0.17360930  0.43890788  0.87788569     1.37500
O323        O  0.22400699  0.43939149  0.89092102    -0.55600
O324        O  0.16139474  0.38821672  0.89306845    -0.54400
C325        C  0.15499077  0.49407934  0.86773367     0.79400
O326        O  0.13107687  0.41803729  0.91147797    -0.56700
O327        O  0.20221330  0.46326001  0.93703057    -0.55200
O328        O  0.15345638  0.43834854  0.80447257    -0.55200
O329        O  0.16526734  0.48105103  0.83655772    -0.54400
C330        C  0.24232048  0.05299141  0.93239749    -0.00200
O331        O  0.19659340  0.09622603  0.78097492    -0.55600
C332        C  0.21825267  0.06466132  0.90459062     0.77100
O333        O  0.12934192  0.10088684  0.88042875    -0.56700
C334        C  0.17515004  0.09122102  0.75708337     0.77000
C335        C  0.15322354  0.02580849  0.85320670     0.79400
Cd336      Cd  0.17130280  0.08208966  0.85141279     1.37500
O337        O  0.22140527  0.08108733  0.87071652    -0.55600
O338        O  0.16283721  0.03813864  0.81847571    -0.54400
C339        C  0.13742758  0.12636289  0.87903805     0.79400
O340        O  0.14677553  0.04074235  0.88507813    -0.56700
O341        O  0.19324613  0.05871367  0.91542959    -0.55200
O342        O  0.15288535  0.08335919  0.77700960    -0.55200
O343        O  0.16282559  0.13171440  0.86930837    -0.54400
O344        O  0.30251014  0.09486108  0.80094688    -0.55600
C345        C  0.27084416  0.06300693  0.91352262     0.77100
O346        O  0.34278720  0.03509855  0.90843755    -0.56700
C347        C  0.32197564  0.08498849  0.77845897     0.77000
C348        C  0.36164069  0.12370189  0.89728550     0.79400
Cd349      Cd  0.32457313  0.07824199  0.87285233     1.37500
O350        O  0.27336401  0.07573356  0.87612043    -0.55600
O351        O  0.33755456  0.12851684  0.88174653    -0.54400
C352        C  0.34492419  0.02307836  0.87199920     0.79400
O353        O  0.36659993  0.09847750  0.90796828    -0.56700
O354        O  0.29359968  0.05893171  0.93409201    -0.55200
O355        O  0.34197614  0.07402591  0.79976232    -0.55200
O356        O  0.34091606  0.03763338  0.83689748    -0.54400
C357        C  0.45883943  0.26482143  0.56628275    -0.00200
O358        O  0.42660233  0.28596443  0.61777517    -0.55600
C359        C  0.41760132  0.33223175  0.72899335     0.77100
O360        O  0.46566237  0.36209019  0.60156686    -0.56700
C361        C  0.44546684  0.28916226  0.58832849     0.77000
C362        C  0.38075308  0.37099656  0.60349690     0.79400
Cd363      Cd  0.42512999  0.33648471  0.63426242     1.37500
O364        O  0.41439709  0.31031374  0.70671267    -0.55600
O365        O  0.37546845  0.34533215  0.61357777    -0.54400
C366        C  0.47976396  0.35843175  0.63690281     0.79400
O367        O  0.40620347  0.37875038  0.60106835    -0.56700
O368        O  0.42250072  0.35506336  0.70733212    -0.55200
O369        O  0.45246497  0.31420402  0.57742162    -0.55200
O370        O  0.46700056  0.34945776  0.67135634    -0.54400
O371        O  0.41290166  0.20437056  0.70343743    -0.55600
C372        C  0.44700992  0.23756790  0.58799344     0.77100
O373        O  0.47086706  0.17088132  0.58706051    -0.56700
C374        C  0.42756356  0.18827966  0.72807048     0.77000
C375        C  0.38599182  0.14562727  0.61364259     0.79400
Cd376      Cd  0.43164269  0.18431966  0.63300271     1.37500
O377        O  0.45054325  0.23249369  0.62905590    -0.55600
O378        O  0.38126802  0.17084797  0.62202256    -0.54400
C379        C  0.48578959  0.16390155  0.62026547     0.79400
O380        O  0.41132126  0.13951546  0.60927239    -0.56700
O381        O  0.43331567  0.21887473  0.56742430    -0.55200
O382        O  0.44310187  0.17178841  0.70870746    -0.55200
O383        O  0.47396748  0.16181663  0.65757973    -0.54400
C384        C  0.04420146  0.26961381  0.55760791    -0.00200
O385        O  0.07857869  0.21585942  0.69550194    -0.55600
C386        C  0.05359203  0.24224121  0.57994100     0.77100
O387        O  0.08990419  0.15043324  0.58500588    -0.56700
C388        C  0.07969666  0.19319666  0.71878499     0.77000
C389        C  0.01708178  0.16571865  0.62780707     0.79400
Cd390      Cd  0.07129104  0.19029946  0.62417479     1.37500
O391        O  0.07873900  0.23891355  0.59273050    -0.55600
O392        O  0.03133568  0.16977627  0.66253374    -0.54400
C393        C  0.11551787  0.15700961  0.59029302     0.79400
O394        O  0.02974192  0.16771287  0.59098722    -0.56700
O395        O  0.03714066  0.22131168  0.58592661    -0.55200
O396        O  0.07931507  0.17071842  0.69807002    -0.55200
O397        O  0.12096518  0.18110622  0.60487918    -0.54400
O398        O  0.07925974  0.31604105  0.70852845    -0.55600
C399        C  0.05262422  0.29418592  0.58603993     0.77100
O400        O  0.02634558  0.36574658  0.60723543    -0.56700
C401        C  0.07553432  0.33732660  0.73150753     0.77000
C402        C  0.11298151  0.37980947  0.61304240     0.79400
Cd403      Cd  0.06760850  0.34230272  0.63784114     1.37500
O404        O  0.06631834  0.29151025  0.62209706    -0.55600
O405        O  0.11760773  0.35428603  0.62262150    -0.54400
C406        C  0.01229243  0.36044697  0.64211080     0.79400
O407        O  0.08772771  0.38638364  0.60810397    -0.56700
O408        O  0.04726207  0.31903400  0.57344238    -0.55200
O409        O  0.07010617  0.36008326  0.71082675    -0.55200
O410        O  0.02495993  0.35029141  0.67555820    -0.54400
C411        C  0.45960165  0.25950853  0.93551917    -0.00200
O412        O  0.44768104  0.23127021  0.87218833    -0.55600
C413        C  0.42731089  0.18753556  0.77679723     0.77100
O414        O  0.47341846  0.16679532  0.91313593    -0.56700
C415        C  0.44787735  0.23328254  0.91383487     0.77000
C416        C  0.38417599  0.14525921  0.89646978     0.79400
Cd417      Cd  0.43129560  0.18148635  0.87203194     1.37500
O418        O  0.41412590  0.20438935  0.79992397    -0.55600
O419        O  0.38054126  0.16990533  0.88086714    -0.54400
C420        C  0.48516503  0.15900531  0.87848723     0.79400
O421        O  0.40903666  0.13889897  0.90587950    -0.56700
O422        O  0.44107581  0.16906503  0.79771894    -0.55200
O423        O  0.43801293  0.21214119  0.93600011    -0.55200
O424        O  0.47010840  0.15634743  0.84431639    -0.54400
O425        O  0.41370973  0.30987108  0.80195593    -0.55600
C426        C  0.44306199  0.28477997  0.91923503     0.77100
O427        O  0.46630713  0.35579398  0.90692146    -0.56700
C428        C  0.41768525  0.33195270  0.77764472     0.77000
C429        C  0.38094773  0.36968846  0.89856826     0.79400
Cd430      Cd  0.42459900  0.33469930  0.87234990     1.37500
O431        O  0.42367357  0.28326676  0.89027441    -0.55600
O432        O  0.37501516  0.34461070  0.88880991    -0.54400
C433        C  0.48040906  0.35554863  0.87163838     0.79400
O434        O  0.40652390  0.37635497  0.90329961    -0.56700
O435        O  0.45007406  0.30917407  0.93075652    -0.55200
O436        O  0.42339412  0.35438458  0.79724572    -0.55200
O437        O  0.46741613  0.35023966  0.83616988    -0.54400
C438        C  0.04625134  0.25431649  0.93951943    -0.00200
O439        O  0.06894094  0.28485253  0.88224859    -0.55600
C440        C  0.07524073  0.33618254  0.77989157     0.77100
O441        O  0.02603078  0.35416731  0.90900496    -0.56700
C442        C  0.05359708  0.28255890  0.91635870     0.77000
C443        C  0.11403306  0.37132023  0.90304184     0.79400
Cd444      Cd  0.06770857  0.33641352  0.87357847     1.37500
O445        O  0.07897691  0.31384749  0.80308560    -0.55600
O446        O  0.11811687  0.34672620  0.89086283    -0.54400
C447        C  0.01192531  0.35459028  0.87332472     0.79400
O448        O  0.08885791  0.37787954  0.90754296    -0.56700
O449        O  0.06941732  0.35787422  0.80028285    -0.55200
O450        O  0.04609491  0.30535463  0.93182892    -0.55200
O451        O  0.02478037  0.35062373  0.83784938    -0.54400
O452        O  0.08111178  0.21304135  0.79137010    -0.55600
C453        C  0.05741525  0.23116879  0.91184524     0.77100
O454        O  0.03235985  0.16315838  0.90523345    -0.56700
C455        C  0.07912711  0.19176118  0.76742591     0.77000
C456        C  0.11682760  0.14811981  0.88232172     0.79400
Cd457      Cd  0.07176429  0.18372182  0.86169077     1.37500
O458        O  0.07596462  0.21437836  0.92567203    -0.55600
O459        O  0.12213191  0.17357034  0.87061419    -0.54400
C460        C  0.01736790  0.15991542  0.87102412     0.79400
O461        O  0.09166936  0.14118880  0.89122178    -0.56700
O462        O  0.04819755  0.22761730  0.87302662    -0.55200
O463        O  0.07505499  0.16821200  0.78729585    -0.55200
O464        O  0.02929216  0.16240344  0.83388530    -0.54400
C465        C  0.49031089  0.26538168  0.92151650    -0.14200
C466        C  0.01450436  0.24754611  0.94515635    -0.29400
H467        H  0.49609116  0.28599490  0.90741271     0.14800
H468        H  0.00938371  0.22834292  0.96429892     0.15400
C469        C  0.06099856  0.25406402  0.98488187    -0.14200
C470        C  0.06030164  0.27364634  0.51409868    -0.29400
H471        H  0.08321601  0.25082327  0.98017505     0.14800
H472        H  0.07824611  0.28830466  0.51562431     0.15400
C473        C  0.45148983  0.26758185  0.51673191    -0.14200
C474        C  0.46001982  0.25458790  0.98613312    -0.29400
H475        H  0.44035646  0.28595848  0.50529193     0.14800
H476        H  0.47008089  0.23570805  0.99808654     0.15400
C477        C  0.49114689  0.26617744  0.57556776    -0.14200
C478        C  0.01230455  0.27035120  0.54830004    -0.29400
H479        H  0.49773015  0.26302389  0.60989003     0.14800
H480        H  0.00639999  0.27624624  0.51479900     0.15400
C481        C  0.25732018  0.50114034  0.92953377    -0.14200
C482        C  0.23827009  0.02034650  0.93551911    -0.29400
H483        H  0.27645158  0.50843396  0.91305156     0.14800
H484        H  0.21832035  0.01299065  0.94898104     0.15400
C485        C  0.25624583  0.05318043  0.51460299    -0.14200
C486        C  0.23861495  0.06393888  0.97895126    -0.29400
H487        H  0.27297334  0.03916739  0.50722827     0.14800
H488        H  0.22124424  0.07729821  0.98529427     0.15400
C489        C  0.24206310  0.47275364  0.52028162    -0.14200
C490        C  0.25735912  0.46148439  0.98898431    -0.29400
H491        H  0.22449837  0.48547484  0.51080794     0.14800
H492        H  0.27410450  0.44779216  0.99921678     0.15400
C493        C  0.25761228  0.50257033  0.58022169    -0.14200
C494        C  0.23922525  0.02308048  0.57571325    -0.29400
H495        H  0.27956750  0.50879224  0.57610920     0.14800
H496        H  0.21716403  0.01727589  0.57190289     0.15400
C497        C  0.24899643  0.97260150  0.06484802    -0.00200
O498        O  0.27255033  0.93747814  0.11269523    -0.55600
C499        C  0.32263625  0.93063960  0.22085472     0.77100
O500        O  0.36722535  0.92072504  0.09549056    -0.56700
C501        C  0.27379740  0.95503945  0.07986536     0.77000
C502        C  0.34257196  0.99499285  0.12299120     0.79400
Cd503      Cd  0.32411613  0.93787875  0.12502221     1.37500
O504        O  0.30083821  0.92465369  0.19831605    -0.55600
O505        O  0.33811611  0.98082562  0.15858719    -0.54400
C506        C  0.36077382  0.89493194  0.10068322     0.79400
O507        O  0.34226355  0.98186979  0.08734198    -0.56700
O508        O  0.34419874  0.93858162  0.19919879    -0.55200
O509        O  0.29783350  0.95982823  0.06357264    -0.55200
O510        O  0.33545172  0.88860169  0.10972126    -0.54400
O511        O  0.22203516  0.96530406  0.13268617    -0.55600
C512        C  0.17568207  0.93559644  0.23165838     0.77100
O513        O  0.15449220  0.98842617  0.09491364    -0.56700
C514        C  0.22343444  0.96262268  0.09123831     0.77000
C515        C  0.13565324  0.90413272  0.11130287     0.79400
Cd516      Cd  0.17276863  0.94814110  0.13816985     1.37500
O517        O  0.19654113  0.93054439  0.20780086    -0.55600
O518        O  0.16093066  0.89884993  0.12045124    -0.54400
C519        C  0.15433520  0.00371769  0.12810663     0.79400
O520        O  0.12905864  0.92959680  0.10984493    -0.56700
O521        O  0.15421572  0.94479783  0.21193172    -0.55200
O522        O  0.20245046  0.95077706  0.07305405    -0.55200
O523        O  0.15879763  0.99211655  0.16570287    -0.54400
C524        C  0.24801398  0.55538002  0.06828516    -0.00200
O525        O  0.30181093  0.59226141  0.21069677    -0.55600
C526        C  0.27355074  0.56540543  0.09436270     0.77100
O527        O  0.36755196  0.60016736  0.10823394    -0.56700
C528        C  0.32237186  0.58461001  0.23468644     0.77000
C529        C  0.34450961  0.52410896  0.13148442     0.79400
Cd530      Cd  0.32501850  0.57886438  0.14073526     1.37500
O531        O  0.27537071  0.56175198  0.13601736    -0.55600
O532        O  0.34255646  0.53475106  0.16888404    -0.54400
C533        C  0.36195750  0.62528630  0.11544598     0.79400
O534        O  0.34165444  0.54017981  0.09757052    -0.56700
O535        O  0.29420821  0.57811793  0.07558540    -0.55200
O536        O  0.34322777  0.57536273  0.21503716    -0.55200
O537        O  0.33771393  0.62960121  0.12987820    -0.54400
O538        O  0.19687970  0.60203793  0.19285763    -0.55600
C539        C  0.22322078  0.57333318  0.07945551     0.77100
O540        O  0.15222450  0.54838016  0.08831028    -0.56700
C541        C  0.17514218  0.59586129  0.21562010     0.77000
C542        C  0.13784447  0.63685142  0.09266178     0.79400
Cd543      Cd  0.17287275  0.59144109  0.12066495     1.37500
O544        O  0.22440622  0.59096470  0.10996801    -0.55600
O545        O  0.16297047  0.64181055  0.10436411    -0.54400
C546        C  0.15355690  0.53475968  0.12514849     0.79400
O547        O  0.13082567  0.61149884  0.08677348    -0.56700
O548        O  0.19925224  0.56888030  0.06264875    -0.55200
O549        O  0.15305392  0.58957247  0.19438130    -0.52000
O550        O  0.15917571  0.54846832  0.15913196    -0.54400
C551        C  0.25513848  0.96809076  0.43557747    -0.00200
O552        O  0.27700685  0.93739381  0.38159520    -0.55600
C553        C  0.32345652  0.93015914  0.26967782     0.77100
O554        O  0.34991371  0.97755654  0.39702230    -0.56700
C555        C  0.27966145  0.95434265  0.41291119     0.77000
C556        C  0.36325677  0.89154328  0.39539282     0.79400
Cd557      Cd  0.32774855  0.93621657  0.36453319     1.37500
O558        O  0.30232056  0.92405358  0.29387504    -0.55600
O559        O  0.33760576  0.88619318  0.38734971    -0.54400
C560        C  0.34579114  0.99263547  0.36225972     0.79400
O561        O  0.37092122  0.91714177  0.39475672    -0.56700
O562        O  0.34582303  0.93736095  0.28949519    -0.55200
O563        O  0.30457822  0.95994505  0.42460722    -0.55200
O564        O  0.33863784  0.98041402  0.32737354    -0.54400
O565        O  0.19763243  0.92738415  0.30309047    -0.55600
C566        C  0.22690317  0.95628285  0.41818837     0.77100
O567        O  0.15277787  0.98159961  0.40079137    -0.56700
C568        C  0.17604380  0.93323156  0.28016393     0.77000
C569        C  0.13671478  0.89431344  0.40199678     0.79400
Cd570      Cd  0.17452911  0.93937241  0.37445071     1.37500
O571        O  0.22508116  0.93746631  0.38966349    -0.55600
O572        O  0.16144415  0.88930662  0.39069922    -0.54400
C573        C  0.15593159  0.99456154  0.36355763     0.79400
O574        O  0.13149353  0.91959318  0.40869423    -0.56700
O575        O  0.20369050  0.96499740  0.43075651    -0.55200
O576        O  0.15448715  0.93944847  0.30113412    -0.55200
O577        O  0.16434156  0.98089719  0.33165956    -0.54400
C578        C  0.24339697  0.55436167  0.43873934    -0.00200
O579        O  0.19667678  0.59863478  0.28793459    -0.55600
C580        C  0.21942468  0.56671792  0.41125925     0.77100
O581        O  0.12975220  0.60331592  0.38514743    -0.56700
C582        C  0.17504189  0.59403115  0.26427567     0.77000
C583        C  0.15274218  0.52834672  0.36279859     0.79400
Cd584      Cd  0.17201022  0.58437718  0.35876326     1.37500
O585        O  0.22262406  0.58134334  0.37546222    -0.55600
O586        O  0.16182162  0.54026920  0.32737837    -0.54400
C587        C  0.13808018  0.62870545  0.38427843     0.79400
O588        O  0.14780409  0.54360240  0.39497707    -0.56700
O589        O  0.19444373  0.56292436  0.42404246    -0.55200
O590        O  0.15287015  0.58617225  0.28445160    -0.55200
O591        O  0.16384251  0.63387901  0.37698911    -0.54400
O592        O  0.30116440  0.58954743  0.30604621    -0.55600
C593        C  0.27210760  0.56393575  0.41987142     0.77100
O594        O  0.34343469  0.53426069  0.41230936    -0.56700
C595        C  0.32260844  0.58504307  0.28317226     0.77000
C596        C  0.36301780  0.62312465  0.40389199     0.79400
Cd597      Cd  0.32591230  0.57815497  0.37809891     1.37500
O598        O  0.27475173  0.57795360  0.38356716    -0.55600
O599        O  0.33909811  0.62837446  0.38798671    -0.54400
C600        C  0.34631692  0.52309956  0.37533955     0.79400
O601        O  0.36747770  0.59782612  0.41473172    -0.56700
O602        O  0.29488909  0.55812792  0.43927324    -0.55200
O603        O  0.34478007  0.57925819  0.30423584    -0.55200
O604        O  0.34339202  0.53851738  0.34088615    -0.54400
C605        C  0.45763678  0.76514583  0.06835108    -0.00200
O606        O  0.42727646  0.78863795  0.12069897    -0.55600
C607        C  0.41972092  0.83422759  0.22992937     0.77100
O608        O  0.46907425  0.86375652  0.10331584    -0.56700
C609        C  0.44561923  0.79044247  0.09044638     0.77000
C610        C  0.38278576  0.87424892  0.10362111     0.79400
Cd611      Cd  0.42752332  0.83957558  0.13541051     1.37500
O612        O  0.41445547  0.81316203  0.20650358    -0.55600
O613        O  0.37781027  0.84879402  0.11520747    -0.54400
C614        C  0.48307956  0.85995900  0.13872953     0.79400
O615        O  0.40821419  0.88213727  0.10096066    -0.56700
O616        O  0.42663158  0.85701976  0.20943381    -0.55200
O617        O  0.45347464  0.81512421  0.07858730    -0.55200
O618        O  0.46999119  0.85180028  0.17330751    -0.54400
O619        O  0.42486436  0.70732515  0.20609715    -0.55600
C620        C  0.44531085  0.73722178  0.08794700     0.77100
O621        O  0.47027272  0.66502465  0.09376500    -0.56700
C622        C  0.42825637  0.68497731  0.22944448     0.77000
C623        C  0.38400795  0.64734288  0.11302645     0.79400
Cd624      Cd  0.43091409  0.68365533  0.13413746     1.37500
O625        O  0.42826688  0.73543885  0.12003087    -0.55600
O626        O  0.38008340  0.67203532  0.12490001    -0.54400
C627        C  0.48575847  0.66392068  0.12797426     0.79400
O628        O  0.40885258  0.64142654  0.10421525    -0.56700
O629        O  0.45300287  0.71398151  0.07447236    -0.55200
O630        O  0.43238489  0.66296296  0.20881985    -0.55200
O631        O  0.47447725  0.66769401  0.16488246    -0.54400
C632        C  0.04420211  0.76969572  0.05561962    -0.00200
O633        O  0.08342685  0.71768738  0.19562864    -0.55600
C634        C  0.05395132  0.74318015  0.08002801     0.77100
O635        O  0.09093941  0.65173445  0.08777956    -0.56700
C636        C  0.08219385  0.69512266  0.21931667     0.77000
C637        C  0.01891407  0.66611212  0.12586345     0.79400
Cd638      Cd  0.07255578  0.69194994  0.12524898     1.37500
O639        O  0.07975620  0.73877208  0.08691219    -0.55600
O640        O  0.03263798  0.66958673  0.16132294    -0.54400
C641        C  0.11650580  0.65827304  0.09362861     0.79400
O642        O  0.03194959  0.66952265  0.08949397    -0.56700
O643        O  0.03707203  0.72410297  0.09391767    -0.55200
O644        O  0.07856777  0.67262550  0.19918028    -0.55200
O645        O  0.12203135  0.68263331  0.10707290    -0.54400
O646        O  0.08231303  0.81812365  0.20260124    -0.55600
C647        C  0.05410810  0.79517429  0.08081996     0.77100
O648        O  0.02607086  0.86534451  0.10004479    -0.56700
C649        C  0.07635771  0.83860984  0.22610822     0.77000
C650        C  0.11378170  0.88215773  0.10897671     0.79400
Cd651      Cd  0.06862633  0.84391242  0.13172273     1.37500
O652        O  0.06571527  0.79309718  0.11871578    -0.55600
O653        O  0.11861814  0.85644892  0.11645185    -0.54400
C654        C  0.01261340  0.86040024  0.13563960     0.79400
O655        O  0.08845932  0.88872683  0.10521845    -0.56700
O656        O  0.05123064  0.81989082  0.06502826    -0.55200
O657        O  0.06862962  0.86072172  0.20570902    -0.55200
O658        O  0.02611814  0.85176994  0.16922187    -0.54400
C659        C  0.46273697  0.75659492  0.43813004    -0.00200
O660        O  0.43132778  0.72896352  0.38967798    -0.55600
C661        C  0.42839951  0.68394031  0.27807230     0.77100
O662        O  0.47447112  0.65770584  0.40935478    -0.56700
C663        C  0.45176049  0.72971876  0.41676863     0.77000
C664        C  0.38609607  0.64407976  0.40252846     0.79400
Cd665      Cd  0.43344723  0.67855567  0.37337074     1.37500
O666        O  0.42592714  0.70540878  0.30103975    -0.55600
O667        O  0.38281703  0.66906254  0.38834787    -0.54400
C668        C  0.48699885  0.65646041  0.37266800     0.79400
O669        O  0.41097437  0.63677183  0.40930634    -0.56700
O670        O  0.43199130  0.66089478  0.29911752    -0.55200
O671        O  0.46247689  0.70630925  0.42588152    -0.55200
O672        O  0.47294470  0.66054193  0.33756368    -0.54400
O673        O  0.41332925  0.81098116  0.30204169    -0.55600
C674        C  0.44681576  0.78250735  0.42039463     0.77100
O675        O  0.47106239  0.85464794  0.40484944    -0.56700
C676        C  0.42005295  0.83285150  0.27859436     0.77000
C677        C  0.38435217  0.86977483  0.39820870     0.79400
Cd678      Cd  0.42811592  0.83349424  0.37333695     1.37500
O679        O  0.42853628  0.78171257  0.38959530    -0.55600
O680        O  0.37851294  0.84414631  0.39180464    -0.54400
C681        C  0.48446597  0.85270803  0.36909877     0.79400
O682        O  0.41001822  0.87673569  0.40079903    -0.56700
O683        O  0.45313405  0.80681780  0.43322751    -0.55200
O684        O  0.42890682  0.85397602  0.29908000    -0.55200
O685        O  0.47068546  0.84633226  0.33488221    -0.54400
C686        C  0.04685959  0.75594454  0.43971542    -0.00200
O687        O  0.06964970  0.78582658  0.38154330    -0.55600
C688        C  0.07630995  0.83726032  0.27477137     0.77100
O689        O  0.02749716  0.85536529  0.40426845    -0.56700
C690        C  0.05451523  0.78405925  0.41598437     0.77000
C691        C  0.11401928  0.87299337  0.39968390     0.79400
Cd692      Cd  0.06879935  0.83700358  0.36957942     1.37500
O693        O  0.08170978  0.81530882  0.29800991    -0.55600
O694        O  0.11840392  0.84804534  0.38949505    -0.54400
C695        C  0.01288543  0.85330159  0.36933152     0.79400
O696        O  0.08875913  0.87986468  0.40141665    -0.56700
O697        O  0.06909484  0.85837362  0.29545869    -0.55200
O698        O  0.04737604  0.80716327  0.43075096    -0.55200
O699        O  0.02522747  0.84762668  0.33413195    -0.54400
O700        O  0.08707760  0.71495333  0.29173987    -0.55600
C701        C  0.05826170  0.73285681  0.41243992     0.77100
O702        O  0.03382005  0.66406992  0.40087321    -0.56700
C703        C  0.08233476  0.69391919  0.26789358     0.77000
C704        C  0.11751499  0.65053313  0.38519871     0.79400
Cd705      Cd  0.07376210  0.68657974  0.36143459     1.37500
O706        O  0.07516513  0.71488836  0.42784974    -0.55600
O707        O  0.12351642  0.67605506  0.37483175    -0.54400
C708        C  0.01908248  0.66343311  0.36594218     0.79400
O709        O  0.09196823  0.64360558  0.39054935    -0.56700
O710        O  0.05118515  0.73074756  0.37223720    -0.55200
O711        O  0.07581978  0.67087952  0.28779194    -0.55200
O712        O  0.03118491  0.66885079  0.32949405    -0.54400
C713        C  0.49426665  0.76235803  0.42696495    -0.14200
C714        C  0.01508117  0.74890982  0.44498196    -0.29400
H715        H  0.49970251  0.78112887  0.40692641     0.14800
H716        H  0.01009682  0.72965307  0.46408148     0.15400
C717        C  0.06145099  0.75548647  0.48520778    -0.14200
C718        C  0.05733501  0.77074912  0.00969415    -0.29400
H719        H  0.08376592  0.75280254  0.48044408     0.14800
H720        H  0.06681512  0.79046945  0.99739656     0.15400
C721        C  0.45039916  0.76838015  0.01873300    -0.14200
C722        C  0.46081355  0.75129558  0.48846187    -0.29400
H723        H  0.43932968  0.78683603  0.00740506     0.14800
H724        H  0.47120777  0.73284036  0.50156920     0.15400
C725        C  0.48989405  0.76534649  0.07778691    -0.14200
C726        C  0.01196995  0.77062387  0.04748213    -0.29400
H727        H  0.49631001  0.76154260  0.11205391     0.14800
H728        H  0.00567969  0.77650547  0.01398319     0.15400
C729        C  0.25865830  0.00062106  0.42551176    -0.14200
C730        C  0.23866219  0.52172899  0.44110519    -0.29400
H731        H  0.27778545  0.00800482  0.40907872     0.14800
H732        H  0.21860563  0.51449652  0.45440740     0.15400
C733        C  0.25594784  0.55477339  0.01929507    -0.14200
C734        C  0.24008844  0.56494324  0.48567851    -0.29400
H735        H  0.27303079  0.54121942  0.01186071     0.14800
H736        H  0.22341780  0.57910682  0.49224621     0.15400
C737        C  0.24150073  0.97223031  0.01536837    -0.14200
C738        C  0.25871294  0.96112284  0.48548500    -0.29400
H739        H  0.22375793  0.98456728  0.00547012     0.14800
H740        H  0.27583911  0.94795298  0.49590599     0.15400
C741        C  0.25766052  0.00342563  0.07306240    -0.14200
C742        C  0.23935062  0.52459338  0.08052909    -0.29400
H743        H  0.27931606  0.00955631  0.06584066     0.14800
H744        H  0.21712511  0.51892827  0.08042346     0.15400
C745        C  0.24953915  0.97120029  0.56716489    -0.00200
O746        O  0.27274326  0.93536968  0.61422408    -0.55600
C747        C  0.32319810  0.92865761  0.72423332     0.77100
O748        O  0.36669369  0.91813567  0.59730673    -0.56700
C749        C  0.27433398  0.95364627  0.58241237     0.77000
C750        C  0.34361558  0.99204236  0.62981834     0.79400
Cd751      Cd  0.32428034  0.93543914  0.62853517     1.37500
O752        O  0.30183243  0.92079667  0.70203152    -0.55600
O753        O  0.33736015  0.97768347  0.66453535    -0.54400
C754        C  0.36038862  0.89237883  0.60350873     0.79400
O755        O  0.34505045  0.97921025  0.59399973    -0.56700
O756        O  0.34425370  0.93766664  0.70226903    -0.55200
O757        O  0.29863553  0.95917519  0.56765840    -0.55200
O758        O  0.33533664  0.88604869  0.61415093    -0.54400
O759        O  0.22114207  0.96095721  0.63299661    -0.55600
C760        C  0.17293050  0.93557491  0.72812785     0.77100
O761        O  0.15564447  0.98711132  0.58821275    -0.56700
C762        C  0.22333447  0.96029143  0.59131170     0.77000
C763        C  0.13517860  0.90014556  0.61057193     0.79400
Cd764      Cd  0.17098313  0.94623789  0.63413462     1.37500
O765        O  0.19374040  0.92990654  0.70461210    -0.55600
O766        O  0.15997850  0.89586755  0.62357042    -0.54400
C767        C  0.15291038  0.00228184  0.62118450     0.79400
O768        O  0.12870320  0.92534620  0.60261749    -0.56700
O769        O  0.15171214  0.94512365  0.70801221    -0.55200
O770        O  0.20235613  0.95010386  0.57077778    -0.55200
O771        O  0.15449283  0.99035969  0.65919645    -0.54400
C772        C  0.24727674  0.55453365  0.56919706    -0.00200
O773        O  0.30275159  0.59262029  0.70763897    -0.55600
C774        C  0.27317816  0.56508695  0.59417878     0.77100
O775        O  0.36960886  0.59976044  0.60708890    -0.56700
C776        C  0.32331675  0.58530730  0.73184207     0.77000
C777        C  0.34450006  0.52319820  0.62979865     0.79400
Cd778      Cd  0.32597007  0.57875593  0.63787096     1.37500
O779        O  0.27581435  0.56176162  0.63576478    -0.55600
O780        O  0.34366490  0.53462090  0.66672123    -0.54400
C781        C  0.36345003  0.62511548  0.61098891     0.79400
O782        O  0.34106313  0.53876766  0.59542898    -0.56700
O783        O  0.29362981  0.57750510  0.57428642    -0.55200
O784        O  0.34436699  0.57634371  0.71237289    -0.55200
O785        O  0.33855721  0.62957389  0.62232525    -0.54400
O786        O  0.19483965  0.59907721  0.69305275    -0.55600
C787        C  0.22196624  0.57172948  0.58087317     0.77100
O788        O  0.15309130  0.54469919  0.58860195    -0.56700
C789        C  0.17360808  0.59160803  0.71622015     0.77000
C790        C  0.13452074  0.63396671  0.59303604     0.79400
Cd791      Cd  0.17028935  0.58859579  0.62128456     1.37500
O792        O  0.22243911  0.58862511  0.61238373    -0.55600
O793        O  0.15889690  0.63896572  0.60808935    -0.54400
C794        C  0.15080817  0.53189436  0.62603159     0.79400
O795        O  0.12857948  0.60875988  0.58440920    -0.56700
O796        O  0.19817522  0.56707052  0.56351808    -0.55200
O797        O  0.15160583  0.58448922  0.69543027    -0.52000
O798        O  0.15218828  0.54648452  0.65994655    -0.54400
C799        C  0.25344326  0.96815180  0.93381317    -0.00200
O800        O  0.27637079  0.93854212  0.87935407    -0.55600
C801        C  0.32399462  0.92936974  0.77291940     0.77100
O802        O  0.34709109  0.97732280  0.90498061    -0.56700
C803        C  0.27831578  0.95468055  0.91178819     0.77000
C804        C  0.36270367  0.89185877  0.89940554     0.79400
Cd805      Cd  0.32795817  0.93659442  0.86743309     1.37500
O806        O  0.30366335  0.92126378  0.79757001    -0.55600
O807        O  0.33702585  0.88684727  0.89138698    -0.54400
C808        C  0.34678433  0.99285502  0.87003444     0.79400
O809        O  0.37077123  0.91733422  0.89859502    -0.56700
O810        O  0.34539621  0.93965026  0.79206890    -0.55200
O811        O  0.30290715  0.95963078  0.92556998    -0.55200
O812        O  0.34327296  0.98109179  0.83346038    -0.54400
O813        O  0.19547375  0.92882867  0.79910243    -0.55600
C814        C  0.22544963  0.95664393  0.91538734     0.77100
O815        O  0.14870699  0.98208205  0.89409075    -0.56700
C816        C  0.17338526  0.93334851  0.77665345     0.77000
C817        C  0.13729625  0.89526676  0.90315851     0.79400
Cd818      Cd  0.17334597  0.94046371  0.87078848     1.37500
O819        O  0.22392872  0.93848713  0.88581936    -0.55600
O820        O  0.16183728  0.89055288  0.89053872    -0.54400
C821        C  0.15483800  0.99563340  0.85827825     0.79400
O822        O  0.13134618  0.92064178  0.90738550    -0.56700
O823        O  0.20213909  0.96508234  0.92805214    -0.55200
O824        O  0.15159921  0.93828566  0.79809558    -0.55200
O825        O  0.16658764  0.98267234  0.82839336    -0.54400
C826        C  0.24389222  0.55382756  0.93827725    -0.00200
O827        O  0.19527332  0.59574415  0.78816386    -0.55600
C828        C  0.21956148  0.56568802  0.91118662     0.77100
O829        O  0.12881868  0.59977671  0.88753027    -0.56700
C830        C  0.17388208  0.58961595  0.76480209     0.77000
C831        C  0.15391908  0.52434198  0.86324366     0.79400
Cd832      Cd  0.17131385  0.58102502  0.85919431     1.37500
O833        O  0.22222409  0.58014624  0.87514775    -0.55600
O834        O  0.16266894  0.53663559  0.82793187    -0.54400
C835        C  0.13637428  0.62530856  0.88228513     0.79400
O836        O  0.14852968  0.53932988  0.89557553    -0.56700
O837        O  0.19474611  0.56135106  0.92445660    -0.55200
O838        O  0.15223825  0.58041398  0.78522228    -0.55200
O839        O  0.16169791  0.63064900  0.87219387    -0.54400
O840        O  0.30171277  0.59036849  0.80290430    -0.55600
C841        C  0.27237261  0.56349588  0.91876465     0.77100
O842        O  0.34493261  0.53445085  0.90839964    -0.56700
C843        C  0.32322263  0.58556624  0.78036371     0.77000
C844        C  0.36329542  0.62171041  0.90214714     0.79400
Cd845      Cd  0.32554314  0.57767981  0.87533013     1.37500
O846        O  0.27464932  0.57921426  0.88407580    -0.55600
O847        O  0.33871176  0.62717812  0.88941173    -0.54400
C848        C  0.34453167  0.52247794  0.87168985     0.79400
O849        O  0.36862596  0.59615013  0.90901144    -0.56700
O850        O  0.29532219  0.55619293  0.93615586    -0.55200
O851        O  0.34506800  0.57914846  0.80179948    -0.55200
O852        O  0.33836517  0.53699133  0.83744967    -0.54400
C853        C  0.45900274  0.76589234  0.56788041    -0.00200
O854        O  0.42895566  0.78811242  0.62196876    -0.55600
C855        C  0.41989364  0.83261922  0.73213920     0.77100
O856        O  0.46818972  0.86234889  0.60292884    -0.56700
C857        C  0.44654294  0.79067118  0.59062727     0.77000
C858        C  0.38245699  0.87186882  0.60591570     0.79400
Cd859      Cd  0.42761125  0.83837604  0.63731645     1.37500
O860        O  0.41742880  0.81101380  0.70900518    -0.55600
O861        O  0.37774897  0.84636043  0.61753243    -0.54400
C862        C  0.48244921  0.86038412  0.63833562     0.79400
O863        O  0.40775703  0.88009061  0.60289993    -0.56700
O864        O  0.42434650  0.85585459  0.71130453    -0.55200
O865        O  0.45337865  0.81558543  0.57864534    -0.55200
O866        O  0.46977919  0.85319660  0.67376926    -0.54400
O867        O  0.42206855  0.70872171  0.70425379    -0.55600
C868        C  0.44670343  0.73780431  0.58693663     0.77100
O869        O  0.47129736  0.66494819  0.59685921    -0.56700
C870        C  0.42469821  0.68636178  0.72788022     0.77000
C871        C  0.38540837  0.64744210  0.60890733     0.79400
Cd872      Cd  0.43107198  0.68478256  0.63309771     1.37500
O873        O  0.42805932  0.73587860  0.61671696    -0.55600
O874        O  0.38074268  0.67258432  0.61776397    -0.54400
C875        C  0.48662784  0.66666490  0.63110650     0.79400
O876        O  0.41070873  0.64144852  0.60396222    -0.56700
O877        O  0.45558004  0.71465385  0.57503074    -0.55200
O878        O  0.42936012  0.66431855  0.70766491    -0.55200
O879        O  0.47501854  0.67257959  0.66689747    -0.54400
C880        C  0.04182657  0.76994384  0.55860502    -0.00200
O881        O  0.07983592  0.71370531  0.69231489    -0.55600
C882        C  0.05097169  0.74197853  0.57928885     0.77100
O883        O  0.08736683  0.64864314  0.58470222    -0.56700
C884        C  0.07721568  0.69115849  0.71584564     0.77000
C885        C  0.01295746  0.66627899  0.62479666     0.79400
Cd886      Cd  0.06787881  0.68908862  0.62202194     1.37500
O887        O  0.07637178  0.73749206  0.58934375    -0.55600
O888        O  0.02729326  0.66966577  0.65966517    -0.54400
C889        C  0.11273564  0.65512641  0.59282625     0.79400
O890        O  0.02568166  0.66816341  0.58795155    -0.56700
O891        O  0.03389788  0.72182476  0.58726993    -0.55200
O892        O  0.07179395  0.66893789  0.69572033    -0.55200
O893        O  0.11763318  0.67935758  0.60712667    -0.54400
O894        O  0.08101996  0.81676284  0.71082710    -0.55600
C895        C  0.05082776  0.79362482  0.58836248     0.77100
O896        O  0.02793837  0.86463244  0.60693709    -0.56700
C897        C  0.07645823  0.83817440  0.73312740     0.77000
C898        C  0.11351475  0.87787320  0.61153164     0.79400
Cd899      Cd  0.06832179  0.84128718  0.63944204     1.37500
O900        O  0.06486019  0.79010807  0.62399175    -0.55600
O901        O  0.11837545  0.85293880  0.62464161    -0.54400
C902        C  0.01383777  0.86061525  0.64204247     0.79400
O903        O  0.08824630  0.88390406  0.60521071    -0.56700
O904        O  0.04605469  0.81872178  0.57670915    -0.55200
O905        O  0.06960775  0.86029685  0.71183811    -0.55200
O906        O  0.02635915  0.85168121  0.67649415    -0.54400
C907        C  0.46081428  0.75629184  0.93835490    -0.00200
O908        O  0.42834266  0.72906231  0.89093384    -0.55600
C909        C  0.42411394  0.68532645  0.77647539     0.77100
O910        O  0.47333975  0.65856720  0.90365731    -0.56700
C911        C  0.44963136  0.72971814  0.91639706     0.77000
C912        C  0.38584385  0.64319145  0.90150244     0.79400
Cd913      Cd  0.43140533  0.67930602  0.87119185     1.37500
O914        O  0.42398681  0.70700744  0.79949010    -0.55600
O915        O  0.38164519  0.66837657  0.88921976    -0.54400
C916        C  0.48556300  0.65888572  0.86654671     0.79400
O917        O  0.41101999  0.63639060  0.90668457    -0.56700
O918        O  0.42558385  0.66195523  0.79742219    -0.55200
O919        O  0.46110472  0.70646477  0.92330358    -0.55200
O920        O  0.47104208  0.66361859  0.83210678    -0.54400
O921        O  0.41565279  0.80921926  0.80453219    -0.55600
C922        C  0.44482344  0.78231793  0.92172402     0.77100
O923        O  0.46886433  0.85263998  0.91121373    -0.56700
C924        C  0.41963531  0.83159406  0.78088696     0.77000
C925        C  0.38337297  0.86980071  0.90201288     0.79400
Cd926      Cd  0.42643460  0.83345722  0.87609160     1.37500
O927        O  0.42569298  0.78178038  0.89221895    -0.55600
O928        O  0.37713427  0.84434999  0.89482925    -0.54400
C929        C  0.48232460  0.85366113  0.87520208     0.79400
O930        O  0.40908510  0.87640217  0.90485788    -0.56700
O931        O  0.45196421  0.80649189  0.93421883    -0.55200
O932        O  0.42508214  0.85373547  0.80131310    -0.55200
O933        O  0.46870448  0.84979733  0.83982685    -0.54400
C934        C  0.04462375  0.75391614  0.93252736    -0.00200
O935        O  0.07277411  0.78632811  0.88447282    -0.55600
C936        C  0.07689539  0.83764612  0.78149982     0.77100
O937        O  0.02810708  0.85471933  0.91095856    -0.56700
C938        C  0.05413461  0.78298455  0.91408351     0.77000
C939        C  0.11524512  0.87324192  0.90473880     0.79400
Cd940      Cd  0.06982869  0.83770717  0.87537947     1.37500
O941        O  0.08152989  0.81564741  0.80496490    -0.55600
O942        O  0.11971339  0.84849677  0.89368227    -0.54400
C943        C  0.01427109  0.85543141  0.87496356     0.79400
O944        O  0.09002275  0.87938282  0.91001292    -0.56700
O945        O  0.07077070  0.85932697  0.80168810    -0.55200
O946        O  0.04451775  0.80528005  0.92825865    -0.55200
O947        O  0.02745065  0.85236841  0.83944808    -0.54400
O948        O  0.08481277  0.71075587  0.78760808    -0.55600
C949        C  0.05843804  0.73181183  0.90638984     0.77100
O950        O  0.03172799  0.66401812  0.90059585    -0.56700
C951        C  0.07818911  0.68993119  0.76429383     0.77000
C952        C  0.11554369  0.64699028  0.88167648     0.79400
Cd953      Cd  0.07195942  0.68379851  0.85818260     1.37500
O954        O  0.07290249  0.71259830  0.92437620    -0.55600
O955        O  0.12149688  0.67233573  0.87015068    -0.54400
C956        C  0.01630227  0.66271184  0.86649860     0.79400
O957        O  0.08999744  0.64021977  0.88737618    -0.56700
O958        O  0.05444534  0.73072590  0.86501088    -0.55200
O959        O  0.07083577  0.66728691  0.78470886    -0.55200
O960        O  0.02785251  0.66686979  0.82929534    -0.54400
C961        C  0.49227179  0.76235142  0.92668181    -0.14200
C962        C  0.01276286  0.74697401  0.92980687    -0.29400
H963        H  0.49756020  0.78139353  0.90719365     0.14800
H964        H  0.00643385  0.72584338  0.94142764     0.15400
C965        C  0.05131205  0.74981097  0.98181507    -0.14200
C966        C  0.05746090  0.77535714  0.51488492    -0.29400
H967        H  0.04379344  0.72980251  0.99662657     0.14800
H968        H  0.07384794  0.79180020  0.51523670     0.15400
C969        C  0.45189392  0.76924335  0.51825416    -0.14200
C970        C  0.45920831  0.75055178  0.98863952    -0.29400
H971        H  0.44088329  0.78769912  0.50677694     0.14800
H972        H  0.46970699  0.73204282  0.00130851     0.15400
C973        C  0.49131384  0.76659603  0.57731467    -0.14200
C974        C  0.00994846  0.77118041  0.54927241    -0.29400
H975        H  0.49776550  0.76261849  0.61151999     0.14800
H976        H  0.00418326  0.77781202  0.51596551     0.15400
C977        C  0.25697602  0.00068319  0.92454944    -0.14200
C978        C  0.23917082  0.52115899  0.94122500    -0.29400
H979        H  0.27626924  0.00829516  0.90882750     0.14800
H980        H  0.21917351  0.51404481  0.95485888     0.15400
C981        C  0.25470201  0.55403562  0.51995753    -0.14200
C982        C  0.24093013  0.56490552  0.98490419    -0.29400
H983        H  0.27169075  0.54047681  0.51210368     0.14800
H984        H  0.22411840  0.57893632  0.99128025     0.15400
C985        C  0.24326474  0.97207229  0.51715432    -0.14200
C986        C  0.25650732  0.96077565  0.98367411    -0.29400
H987        H  0.22549975  0.98430204  0.50696610     0.14800
H988        H  0.27342213  0.94736192  0.99418120     0.15400
C989        C  0.25732338  0.00181257  0.57836012    -0.14200
C990        C  0.23936235  0.52361136  0.58191675    -0.29400
H991        H  0.27945507  0.00760049  0.58100280     0.14800
H992        H  0.21725662  0.51775715  0.58496756     0.15400
C993        C  0.74878245  0.47184312  0.06746186    -0.00200
O994        O  0.77048696  0.43510829  0.11452356    -0.55600
C995        C  0.82166488  0.42647973  0.22609571     0.77100
O996        O  0.86343046  0.41757299  0.09946699    -0.56700
C997        C  0.77291438  0.45349677  0.08295215     0.77000
C998        C  0.83972057  0.49148445  0.13659778     0.79400
Cd999      Cd  0.82141084  0.43484256  0.13129801     1.37500
O1000       O  0.79908370  0.42188051  0.20464408    -0.55600
O1001       O  0.82838138  0.47763341  0.16847104    -0.54400
C1002       C  0.85723522  0.39178971  0.10599284     0.79400
O1003       O  0.84601385  0.47825947  0.10266563    -0.56700
O1004       O  0.84335051  0.43266358  0.20358627    -0.55200
O1005       O  0.79747136  0.45840223  0.06873902    -0.55200
O1006       O  0.83225918  0.38536984  0.11720570    -0.54400
O1007       O  0.71984814  0.46150436  0.13269980    -0.55600
C1008       C  0.67382900  0.43402319  0.22697156     0.77100
O1009       O  0.65347019  0.48732693  0.09015949    -0.56700
C1010       C  0.72218557  0.46141230  0.09103150     0.77000
C1011       C  0.63421940  0.39941214  0.10633996     0.79400
Cd1012     Cd  0.66985612  0.44565851  0.13317336     1.37500
O1013       O  0.69479903  0.43028148  0.20264417    -0.55600
O1014       O  0.65931891  0.39528064  0.11804213    -0.54400
C1015       C  0.65188049  0.50191519  0.12403287     0.79400
O1016       O  0.62720293  0.42467882  0.10131387    -0.56700
O1017       O  0.65144496  0.44122396  0.20756985    -0.55200
O1018       O  0.70125301  0.45148100  0.07004259    -0.55200
O1019       O  0.65388041  0.48921370  0.16137379    -0.54400
C1020       C  0.74734182  0.05214937  0.06487192    -0.00200
O1021       O  0.80345367  0.09417175  0.20302452    -0.55600
C1022       C  0.77299685  0.06295425  0.08988319     0.77100
O1023       O  0.86775280  0.09834971  0.10152859    -0.56700
C1024       C  0.82408942  0.08669439  0.22696983     0.77000
C1025       C  0.84321634  0.02125474  0.12947524     0.79400
Cd1026     Cd  0.82496596  0.07708228  0.13418697     1.37500
O1027       O  0.77490569  0.06085941  0.13169825    -0.55600
O1028       O  0.83833087  0.03229148  0.16579514    -0.54400
C1029       C  0.86129150  0.12346325  0.10725972     0.79400
O1030       O  0.84381191  0.03722825  0.09499161    -0.56700
O1031       O  0.79383312  0.07451310  0.06989419    -0.55200
O1032       O  0.84446062  0.07631251  0.20756673    -0.55200
O1033       O  0.83650520  0.12742734  0.11955210    -0.54400
O1034       O  0.69679651  0.09439497  0.18896859    -0.55600
C1035       C  0.72210285  0.06934297  0.07625115     0.77100
O1036       O  0.65362181  0.04278475  0.08431684    -0.56700
C1037       C  0.67471361  0.09046606  0.21178133     0.77000
C1038       C  0.63659084  0.13107156  0.09094104     0.79400
Cd1039     Cd  0.67156624  0.08614983  0.11745501     1.37500
O1040       O  0.72298921  0.08736087  0.10620739    -0.55600
O1041       O  0.66220671  0.13609722  0.09944448    -0.54400
C1042       C  0.65269548  0.02945430  0.12145483     0.79400
O1043       O  0.62900281  0.10571485  0.08651926    -0.56700
O1044       O  0.69814856  0.06382088  0.06007198    -0.55200
O1045       O  0.65203471  0.08660135  0.19076066    -0.52000
O1046       O  0.65554203  0.04348576  0.15583706    -0.54400
C1047       C  0.75469900  0.46695212  0.43652783    -0.00200
O1048       O  0.77749122  0.43602285  0.38418297    -0.55600
C1049       C  0.82311333  0.42706557  0.27461454     0.77100
O1050       O  0.85149811  0.47613592  0.40047482    -0.56700
C1051       C  0.77962452  0.45347155  0.41479929     0.77000
C1052       C  0.86200757  0.39048476  0.40060326     0.79400
Cd1053     Cd  0.82803848  0.43538640  0.36830372     1.37500
O1054       O  0.80192610  0.42272135  0.29930027    -0.55600
O1055       O  0.83650159  0.38545518  0.39126899    -0.54400
C1056       C  0.84711435  0.49155676  0.36619065     0.79400
O1057       O  0.87002611  0.41596016  0.40080106    -0.56700
O1058       O  0.84595295  0.43382134  0.29350661    -0.55200
O1059       O  0.80433838  0.45965738  0.42684332    -0.55200
O1060       O  0.83934064  0.47969566  0.33123949    -0.54400
O1061       O  0.69761294  0.42887414  0.29758765    -0.55600
C1062       C  0.72680515  0.45540901  0.41704622     0.77100
O1063       O  0.65216198  0.48038758  0.39701333    -0.56700
C1064       C  0.67512277  0.43237551  0.27558383     0.77000
C1065       C  0.63777217  0.39305029  0.39808837     0.79400
Cd1066     Cd  0.67488835  0.43872315  0.37034001     1.37500
O1067       O  0.72569279  0.43877813  0.38522275    -0.55600
O1068       O  0.66218090  0.38819120  0.38491911    -0.54400
C1069       C  0.65579173  0.49369498  0.36021118     0.79400
O1070       O  0.63274804  0.41825923  0.40561550    -0.56700
O1071       O  0.70319785  0.46232624  0.43081447    -0.55200
O1072       O  0.65340843  0.43675991  0.29753617    -0.55200
O1073       O  0.66457591  0.48035890  0.32824825    -0.54400
C1074       C  0.74465537  0.05237084  0.43298698    -0.00200
O1075       O  0.69667532  0.09165904  0.28369775    -0.55600
C1076       C  0.72015355  0.06349925  0.40553701     0.77100
O1077       O  0.62957318  0.09714644  0.38214179    -0.56700
C1078       C  0.67473045  0.08832840  0.26026094     0.77000
C1079       C  0.65320939  0.02207817  0.35988230     0.79400
Cd1080     Cd  0.67165000  0.07857264  0.35422512     1.37500
O1081       O  0.72258783  0.07631428  0.36803136    -0.55600
O1082       O  0.65936391  0.03427163  0.32314445    -0.54400
C1083       C  0.63759450  0.12262999  0.38039254     0.79400
O1084       O  0.65071958  0.03714986  0.39301216    -0.56700
O1085       O  0.69545912  0.06012991  0.41985115    -0.55200
O1086       O  0.65228005  0.08149956  0.28046197    -0.55200
O1087       O  0.66308340  0.12806796  0.37136695    -0.54400
O1088       O  0.80395431  0.09512643  0.29804411    -0.55600
C1089       C  0.77298075  0.06259383  0.41334352     0.77100
O1090       O  0.84761191  0.03508394  0.39978436    -0.56700
C1091       C  0.82446190  0.08757861  0.27536959     0.77000
C1092       C  0.86444352  0.12138395  0.39847020     0.79400
Cd1093     Cd  0.82605707  0.07813072  0.36987353     1.37500
O1094       O  0.77493672  0.07791512  0.37819623    -0.55600
O1095       O  0.83976340  0.12726291  0.38672196    -0.54400
C1096       C  0.84449487  0.02280690  0.36352540     0.79400
O1097       O  0.86970721  0.09566827  0.40321302    -0.56700
O1098       O  0.79611783  0.05627609  0.43111795    -0.55200
O1099       O  0.84536466  0.07841750  0.29659840    -0.55200
O1100       O  0.83554328  0.03697558  0.33058694    -0.54400
C1101       C  0.95661115  0.26530735  0.06900529    -0.00200
O1102       O  0.92646733  0.28762411  0.12307054    -0.55600
C1103       C  0.91951525  0.33369274  0.23338861     0.77100
O1104       O  0.96652643  0.36111295  0.10240745    -0.56700
C1105       C  0.94426060  0.29008194  0.09197927     0.77000
C1106       C  0.87945807  0.37138462  0.10785787     0.79400
Cd1107     Cd  0.92553766  0.33845575  0.13816350     1.37500
O1108       O  0.91560626  0.31213844  0.21048618    -0.55600
O1109       O  0.87513406  0.34598702  0.12040017    -0.54400
C1110       C  0.98050557  0.36061295  0.13821372     0.79400
O1111       O  0.90465934  0.37966360  0.10329987    -0.56700
O1112       O  0.92468721  0.35668631  0.21223530    -0.55200
O1113       O  0.95153854  0.31496116  0.08049675    -0.55200
O1114       O  0.96748047  0.35501234  0.17387888    -0.54400
O1115       O  0.91812405  0.20665370  0.20423077    -0.55600
C1116       C  0.94393088  0.23719461  0.08722500     0.77100
O1117       O  0.96812325  0.16594878  0.09316002    -0.56700
C1118       C  0.92415269  0.18502720  0.22777458     0.77000
C1119       C  0.88280743  0.14607251  0.10648842     0.79400
Cd1120     Cd  0.92785993  0.18372963  0.13206322     1.37500
O1121       O  0.92388948  0.23503739  0.11467021    -0.55600
O1122       O  0.87778280  0.17048756  0.11856359    -0.54400
C1123       C  0.98326197  0.16584389  0.12781343     0.79400
O1124       O  0.90811206  0.14093024  0.09966604    -0.56700
O1125       O  0.95391640  0.21421598  0.07691135    -0.55200
O1126       O  0.93054493  0.16361031  0.20719240    -0.55200
O1127       O  0.97139991  0.16948613  0.16434008    -0.54400
C1128       C  0.54338812  0.26429309  0.05968899    -0.00200
O1129       O  0.58995513  0.20795580  0.19405183    -0.55600
C1130       C  0.55675038  0.23913741  0.08240238     0.77100
O1131       O  0.58995134  0.14605185  0.08875031    -0.56700
C1132       C  0.57895045  0.18795888  0.21765127     0.77000
C1133       C  0.51722380  0.16582724  0.11216299     0.79400
Cd1134     Cd  0.57241407  0.18693557  0.12297498     1.37500
O1135       O  0.57452627  0.22430505  0.06397158    -0.55600
O1136       O  0.53086909  0.16166685  0.14766137    -0.54400
C1137       C  0.61561190  0.15250597  0.09368755     0.79400
O1138       O  0.53073162  0.17476385  0.07828402    -0.56700
O1139       O  0.54979927  0.23154419  0.12144970    -0.55200
O1140       O  0.56700528  0.16823071  0.19734609    -0.55200
O1141       O  0.62167467  0.17675568  0.10732245    -0.54400
O1142       O  0.57993137  0.31441520  0.20588889    -0.55600
C1143       C  0.55247402  0.29025119  0.08468394     0.77100
O1144       O  0.52632934  0.36416105  0.10802279    -0.56700
C1145       C  0.57694906  0.33629740  0.22780243     0.77000
C1146       C  0.61285327  0.37666414  0.10591977     0.79400
Cd1147     Cd  0.56799858  0.33917942  0.13409931     1.37500
O1148       O  0.56845239  0.28899734  0.11849606    -0.55600
O1149       O  0.61798518  0.35183162  0.11927741    -0.54400
C1150       C  0.51250638  0.35630366  0.14220007     0.79400
O1151       O  0.58748577  0.38212770  0.09863928    -0.56700
O1152       O  0.54535091  0.31456512  0.07193177    -0.55200
O1153       O  0.57221885  0.35885349  0.20601290    -0.55200
O1154       O  0.52539536  0.34379523  0.17336048    -0.54400
C1155       C  0.96273669  0.25657791  0.43956816    -0.00200
O1156       O  0.93247876  0.23010035  0.38776382    -0.55600
C1157       C  0.92526412  0.18425595  0.27650832     0.77100
O1158       O  0.97502074  0.15892836  0.40528517    -0.56700
C1159       C  0.95150830  0.23001754  0.41737127     0.77000
C1160       C  0.88710401  0.14279088  0.39930731     0.79400
Cd1161     Cd  0.93309900  0.17947343  0.37165862     1.37500
O1162       O  0.92077535  0.20527158  0.29968546    -0.55600
O1163       O  0.88310387  0.16820070  0.38822415    -0.54400
C1164       C  0.98771089  0.16015956  0.36853230     0.79400
O1165       O  0.91222494  0.13587013  0.40478219    -0.56700
O1166       O  0.93220453  0.16201636  0.29733175    -0.55200
O1167       O  0.96066518  0.20610658  0.42791894    -0.55200
O1168       O  0.97364068  0.16571749  0.33389441    -0.54400
O1169       O  0.91584978  0.31022438  0.30563021    -0.55600
C1170       C  0.94674883  0.28265039  0.42283864     0.77100
O1171       O  0.96821241  0.35441433  0.41272536    -0.56700
C1172       C  0.91988138  0.33265267  0.28214842     0.77000
C1173       C  0.88276475  0.36857226  0.40354212     0.79400
Cd1174     Cd  0.92681204  0.33360349  0.37749108     1.37500
O1175       O  0.92644391  0.28192939  0.39536744    -0.55600
O1176       O  0.87697097  0.34330629  0.39462666    -0.54400
C1177       C  0.98207827  0.35503124  0.37709321     0.79400
O1178       O  0.90832300  0.37531874  0.40830387    -0.56700
O1179       O  0.95464378  0.30695464  0.43368119    -0.55200
O1180       O  0.92580339  0.35464744  0.30272340    -0.55200
O1181       O  0.96891876  0.35057307  0.34145506    -0.54400
C1182       C  0.54695985  0.25355851  0.43584371    -0.00200
O1183       O  0.56844065  0.28490395  0.37757599    -0.55600
C1184       C  0.57638937  0.33588507  0.27620202     0.77100
O1185       O  0.52685268  0.35500328  0.40561239    -0.56700
C1186       C  0.55415874  0.28216669  0.41272830     0.77000
C1187       C  0.61493308  0.37173450  0.39752570     0.79400
Cd1188     Cd  0.56816012  0.33664376  0.36985573     1.37500
O1189       O  0.57986559  0.31378850  0.30007361    -0.55600
O1190       O  0.61867996  0.34689280  0.38622302    -0.54400
C1191       C  0.51227541  0.35432815  0.37045602     0.79400
O1192       O  0.58985642  0.37859214  0.40226778    -0.56700
O1193       O  0.57040372  0.35781551  0.29587707    -0.55200
O1194       O  0.54757203  0.30493357  0.42940233    -0.55200
O1195       O  0.52477180  0.34993671  0.33479801    -0.54400
O1196       O  0.59033131  0.20540218  0.29001363    -0.55600
C1197       C  0.55798039  0.22919629  0.41026728     0.77100
O1198       O  0.53210257  0.15769756  0.39705627    -0.56700
C1199       C  0.57856935  0.18698793  0.26623570     0.77000
C1200       C  0.61692859  0.14428809  0.38249826     0.79400
Cd1201     Cd  0.57293112  0.18107527  0.36073261     1.37500
O1202       O  0.56889344  0.23197742  0.37213676    -0.55600
O1203       O  0.62278717  0.16999089  0.37393521    -0.54400
C1204       C  0.51755943  0.15981012  0.36190551     0.79400
O1205       O  0.59143688  0.13726246  0.38735532    -0.56700
O1206       O  0.55642172  0.20437645  0.42657189    -0.55200
O1207       O  0.56522172  0.16707938  0.28629352    -0.55200
O1208       O  0.52993777  0.16744220  0.32646544    -0.54400
C1209       C  0.99430805  0.26239635  0.42834471    -0.14200
C1210       C  0.51522068  0.24690073  0.44189114    -0.29400
H1211       H  0.99959740  0.28113403  0.40813786     0.14800
H1212       H  0.51017818  0.22780757  0.46135949     0.15400
C1213       C  0.56214645  0.25302428  0.48088205    -0.14200
C1214       C  0.55276031  0.26871546  0.01145911    -0.29400
H1215       H  0.58399995  0.24810859  0.47595987     0.14800
H1216       H  0.55905551  0.28978240  0.00011781     0.15400
C1217       C  0.94999502  0.26897795  0.01924377    -0.14200
C1218       C  0.96085862  0.25109918  0.48985306    -0.29400
H1219       H  0.93928644  0.28762902  0.00776302     0.14800
H1220       H  0.97096364  0.23242543  0.50275157     0.15400
C1221       C  0.98887100  0.26572235  0.07894293    -0.14200
C1222       C  0.51121989  0.25792893  0.05883372    -0.29400
H1223       H  0.99514114  0.26122829  0.11309498     0.14800
H1224       H  0.50480638  0.23857115  0.04364279     0.15400
C1225       C  0.75848525  0.49950503  0.42728705    -0.14200
C1226       C  0.74056832  0.01971271  0.43618669    -0.29400
H1227       H  0.77791135  0.50702790  0.41189334     0.14800
H1228       H  0.72074095  0.01227809  0.45004937     0.15400
C1229       C  0.75465391  0.05169562  0.01569661    -0.14200
C1230       C  0.74134215  0.06356207  0.47964359    -0.29400
H1231       H  0.77189409  0.03848791  0.00771101     0.14800
H1232       H  0.72396920  0.07690047  0.48603020     0.15400
C1233       C  0.74254320  0.47287675  0.01771369    -0.14200
C1234       C  0.75763353  0.45951266  0.48655101    -0.29400
H1235       H  0.72540016  0.48598321  0.00766680     0.14800
H1236       H  0.77470169  0.44631970  0.49722846     0.15400
C1237       C  0.75782371  0.50228894  0.07789539    -0.14200
C1238       C  0.73974124  0.02122463  0.07792980    -0.29400
H1239       H  0.77976149  0.50806855  0.07237491     0.14800
H1240       H  0.71770572  0.01517437  0.08132394     0.15400
C1241       C  0.74911431  0.47051145  0.56812757    -0.00200
O1242       O  0.77220051  0.43494248  0.61589772    -0.55600
C1243       C  0.82280072  0.42789942  0.72670125     0.77100
O1244       O  0.86671531  0.41935784  0.60162880    -0.56700
C1245       C  0.77387074  0.45296169  0.58373124     0.77000
C1246       C  0.84200862  0.49251557  0.63407785     0.79400
Cd1247     Cd  0.82360792  0.43580389  0.63124608     1.37500
O1248       O  0.80056680  0.42313872  0.70450612    -0.55600
O1249       O  0.83291498  0.47844178  0.66746246    -0.54400
C1250       C  0.86020603  0.39350067  0.60522427     0.79400
O1251       O  0.84621249  0.47947983  0.59911889    -0.56700
O1252       O  0.84471022  0.43411938  0.70478064    -0.55200
O1253       O  0.79823762  0.45837888  0.56904357    -0.55200
O1254       O  0.83491145  0.38692127  0.61419102    -0.54400
O1255       O  0.72148587  0.46231350  0.63536085    -0.55600
C1256       C  0.67326193  0.43678568  0.73465381     0.77100
O1257       O  0.65222699  0.48783032  0.59738468    -0.56700
C1258       C  0.72305948  0.46056706  0.59376170     0.77000
C1259       C  0.63350398  0.40306661  0.61498103     0.79400
Cd1260     Cd  0.67121035  0.44748743  0.64027447     1.37500
O1261       O  0.69441948  0.43174001  0.71145140    -0.55600
O1262       O  0.65816658  0.39777807  0.62779867    -0.54400
C1263       C  0.65276085  0.50330258  0.63038688     0.79400
O1264       O  0.62773543  0.42861686  0.60894451    -0.56700
O1265       O  0.65171146  0.44502039  0.71402333    -0.55200
O1266       O  0.70163441  0.45011325  0.57478118    -0.55200
O1267       O  0.65824653  0.49189084  0.66774527    -0.54400
C1268       C  0.74937929  0.05526790  0.56342428    -0.00200
O1269       O  0.80359805  0.09701002  0.70816590    -0.55600
C1270       C  0.77475502  0.06626980  0.58922051     0.77100
O1271       O  0.86856302  0.10145954  0.60640973    -0.56700
C1272       C  0.82412743  0.08902292  0.73199221     0.77000
C1273       C  0.84334152  0.02578417  0.63651949     0.79400
Cd1274     Cd  0.82534129  0.08138504  0.63801921     1.37500
O1275       O  0.77513783  0.06636765  0.63112726    -0.55600
O1276       O  0.83476278  0.03661616  0.67109810    -0.54400
C1277       C  0.86276910  0.12685788  0.61093389     0.79400
O1278       O  0.84782319  0.04191166  0.60285614    -0.56700
O1279       O  0.79667688  0.07609492  0.57015104    -0.55200
O1280       O  0.84475890  0.07955140  0.71203448    -0.55200
O1281       O  0.83806720  0.13175019  0.62284370    -0.54400
O1282       O  0.69666513  0.10004356  0.68924850    -0.55600
C1283       C  0.72400302  0.07253357  0.57446442     0.77100
O1284       O  0.65637521  0.04618878  0.58214512    -0.56700
C1285       C  0.67550092  0.09132617  0.71168716     0.77000
C1286       C  0.63758457  0.13508257  0.58936457     0.79400
Cd1287     Cd  0.67310913  0.08971196  0.61605998     1.37500
O1288       O  0.72477141  0.09084314  0.60400058    -0.55600
O1289       O  0.66202748  0.13992599  0.60419976    -0.54400
C1290       C  0.65354753  0.03329346  0.61943169     0.79400
O1291       O  0.63159102  0.11006427  0.57965921    -0.56700
O1292       O  0.69999982  0.06661821  0.55893323    -0.55200
O1293       O  0.65416182  0.08335566  0.69001058    -0.52000
O1294       O  0.65467971  0.04770733  0.65355833    -0.54400
C1295       C  0.75369623  0.46813703  0.93645392    -0.00200
O1296       O  0.77573704  0.43703575  0.88334986    -0.55600
C1297       C  0.82359987  0.42836534  0.77535533     0.77100
O1298       O  0.84918672  0.47637632  0.90437957    -0.56700
C1299       C  0.77817581  0.45416994  0.91440349     0.77000
C1300       C  0.86091136  0.38991626  0.90124937     0.79400
Cd1301     Cd  0.82717726  0.43548344  0.86964277     1.37500
O1302       O  0.80226331  0.42307079  0.79940763    -0.55600
O1303       O  0.83557155  0.38521064  0.89055199    -0.54400
C1304       C  0.84659343  0.49165501  0.86941549     0.79400
O1305       O  0.86884713  0.41532408  0.90360170    -0.56700
O1306       O  0.84597619  0.43573576  0.79505635    -0.55200
O1307       O  0.80293533  0.45949594  0.92709995    -0.55200
O1308       O  0.84052797  0.47961118  0.83387083    -0.54400
O1309       O  0.69484319  0.42931242  0.80652715    -0.55600
C1310       C  0.72535578  0.45682154  0.91885155     0.77100
O1311       O  0.65345776  0.48324064  0.90885355    -0.56700
C1312       C  0.67340478  0.43521980  0.78328523     0.77000
C1313       C  0.63486890  0.39416218  0.90497890     0.79400
Cd1314     Cd  0.67161927  0.44047018  0.87793903     1.37500
O1315       O  0.72319081  0.44232909  0.88463792    -0.55600
O1316       O  0.65923854  0.38992111  0.89118028    -0.54400
C1317       C  0.65182523  0.49553292  0.87097172     0.79400
O1318       O  0.62967824  0.41905603  0.91420262    -0.56700
O1319       O  0.70235720  0.46162999  0.93711948    -0.55200
O1320       O  0.65181165  0.44172117  0.80397899    -0.55200
O1321       O  0.65521288  0.48105526  0.83757296    -0.54400
C1322       C  0.74324931  0.05214757  0.93464366    -0.00200
O1323       O  0.69522143  0.09732745  0.78474951    -0.55600
C1324       C  0.71909792  0.06413719  0.90712296     0.77100
O1325       O  0.62842337  0.09960723  0.88360761    -0.56700
C1326       C  0.67504509  0.08908713  0.76036519     0.77000
C1327       C  0.65256421  0.02507844  0.86137943     0.79400
Cd1328     Cd  0.67094749  0.08113460  0.85512075     1.37500
O1329       O  0.72200755  0.07843865  0.87097243    -0.55600
O1330       O  0.65810738  0.03727451  0.82437064    -0.54400
C1331       C  0.63570177  0.12521968  0.87909683     0.79400
O1332       O  0.64998130  0.04012220  0.89456776    -0.56700
O1333       O  0.69420112  0.06022806  0.92015045    -0.55200
O1334       O  0.65391198  0.07784706  0.77986120    -0.55200
O1335       O  0.66087792  0.13088317  0.86848301    -0.54400
O1336       O  0.80352894  0.09552479  0.80349845    -0.55600
C1337       C  0.77186813  0.06262777  0.91657049     0.77100
O1338       O  0.84580289  0.03532688  0.90719296    -0.56700
C1339       C  0.82416648  0.08852239  0.78064593     0.77000
C1340       C  0.86351439  0.12225692  0.90377365     0.79400
Cd1341     Cd  0.82549220  0.07855981  0.87544418     1.37500
O1342       O  0.77437104  0.07927315  0.88299977    -0.55600
O1343       O  0.83868620  0.12794664  0.89268113    -0.54400
C1344       C  0.84420772  0.02314524  0.87066731     0.79400
O1345       O  0.86886171  0.09659155  0.90905782    -0.56700
O1346       O  0.79471923  0.05531752  0.93429017    -0.55200
O1347       O  0.84495005  0.07897853  0.80178557    -0.55200
O1348       O  0.83674164  0.03747005  0.83686989    -0.54400
C1349       C  0.95934186  0.26593418  0.56932770    -0.00200
O1350       O  0.92735110  0.28865856  0.62008447    -0.55600
C1351       C  0.91881972  0.33323032  0.73225748     0.77100
O1352       O  0.96811038  0.36454302  0.60676294    -0.56700
C1353       C  0.94686047  0.29088632  0.59170705     0.77000
C1354       C  0.88221241  0.37287666  0.60650568     0.79400
Cd1355     Cd  0.92724465  0.33893218  0.63775745     1.37500
O1356       O  0.91556735  0.31178374  0.70893568    -0.55600
O1357       O  0.87744256  0.34734554  0.61783243    -0.54400
C1358       C  0.98205756  0.36071546  0.64222512     0.79400
O1359       O  0.90755384  0.38091533  0.60295388    -0.56700
O1360       O  0.92412375  0.35637062  0.71164965    -0.55200
O1361       O  0.95541845  0.31566271  0.58201118    -0.55200
O1362       O  0.96902114  0.35201305  0.67658866    -0.54400
O1363       O  0.92150312  0.20747724  0.70501428    -0.55600
C1364       C  0.94704146  0.23790164  0.58833128     0.77100
O1365       O  0.97151851  0.16506805  0.59553111    -0.56700
C1366       C  0.92660963  0.18559722  0.72857684     0.77000
C1367       C  0.88502889  0.14869259  0.60908759     0.79400
Cd1368     Cd  0.93153182  0.18452303  0.63345871     1.37500
O1369       O  0.92839119  0.23591123  0.61805958    -0.55600
O1370       O  0.88101881  0.17348858  0.62030676    -0.54400
C1371       C  0.98671762  0.16517343  0.63010920     0.79400
O1372       O  0.91004011  0.14243456  0.60216299    -0.56700
O1373       O  0.95617158  0.21482104  0.57663288    -0.55200
O1374       O  0.93312591  0.16414701  0.70818141    -0.55200
O1375       O  0.97503884  0.16995420  0.66634755    -0.54400
C1376       C  0.54379613  0.26962923  0.55414343    -0.00200
O1377       O  0.58175430  0.21300389  0.69204545    -0.55600
C1378       C  0.55301377  0.24224254  0.57706447     0.77100
O1379       O  0.59068075  0.15020765  0.58018894    -0.56700
C1380       C  0.57593861  0.19092571  0.71544379     0.77000
C1381       C  0.51617278  0.16428725  0.61773727     0.79400
Cd1382     Cd  0.57021129  0.18917838  0.62022209     1.37500
O1383       O  0.57852622  0.23765619  0.58620223    -0.55600
O1384       O  0.53049550  0.16420175  0.65315324    -0.54400
C1385       C  0.61579456  0.15607909  0.59072715     0.79400
O1386       O  0.52882301  0.17037017  0.58163702    -0.56700
O1387       O  0.53589531  0.22256141  0.58760254    -0.55200
O1388       O  0.56908660  0.16926382  0.69481100    -0.55200
O1389       O  0.62030188  0.17929175  0.60865431    -0.54400
O1390       O  0.57995270  0.31894891  0.70638937    -0.55600
C1391       C  0.55233730  0.29433960  0.58235083     0.77100
O1392       O  0.52446922  0.36653652  0.60346276    -0.56700
C1393       C  0.57200284  0.33896004  0.72932202     0.77000
C1394       C  0.61140259  0.38118177  0.61330423     0.79400
Cd1395     Cd  0.56582530  0.34283913  0.63488162     1.37500
O1396       O  0.56380686  0.29157835  0.62028105    -0.55600
O1397       O  0.61589229  0.35580852  0.62415258    -0.54400
C1398       C  0.50996336  0.35884797  0.63702509     0.79400
O1399       O  0.58622966  0.38753797  0.60630714    -0.56700
O1400       O  0.54903473  0.31931129  0.56809217    -0.55200
O1401       O  0.56259471  0.36019213  0.70844043    -0.55200
O1402       O  0.52231164  0.34729563  0.66961060    -0.54400
C1403       C  0.96138056  0.25682680  0.93910702    -0.00200
O1404       O  0.93143844  0.23013074  0.88728072    -0.55600
C1405       C  0.92644819  0.18456370  0.77724527     0.77100
O1406       O  0.97419567  0.16077240  0.90932738    -0.56700
C1407       C  0.95055005  0.23028152  0.91675534     0.77000
C1408       C  0.88627534  0.14360224  0.90271137     0.79400
Cd1409     Cd  0.93243766  0.17950801  0.87259651     1.37500
O1410       O  0.92172798  0.20557474  0.80025542    -0.55600
O1411       O  0.88229200  0.16901033  0.89153445    -0.54400
C1412       C  0.98707171  0.15948512  0.87297840     0.79400
O1413       O  0.91140596  0.13643437  0.90631720    -0.56700
O1414       O  0.93238969  0.16208437  0.79827617    -0.55200
O1415       O  0.96009505  0.20655645  0.92731510    -0.55200
O1416       O  0.97315730  0.16296530  0.83754747    -0.54400
O1417       O  0.91407690  0.30967123  0.80439832    -0.55600
C1418       C  0.94539857  0.28273973  0.92211413     0.77100
O1419       O  0.96781651  0.35502965  0.90901901    -0.56700
C1420       C  0.91867888  0.33204380  0.78097751     0.77000
C1421       C  0.88160898  0.36787546  0.90315967     0.79400
Cd1422     Cd  0.92587237  0.33324239  0.87607509     1.37500
O1423       O  0.92572767  0.28189886  0.89355918    -0.55600
O1424       O  0.87590991  0.34320194  0.89113112    -0.54400
C1425       C  0.98154658  0.35432136  0.87339025     0.79400
O1426       O  0.90709869  0.37411683  0.91006822    -0.56700
O1427       O  0.95277698  0.30703561  0.93366712    -0.55200
O1428       O  0.92498372  0.35394489  0.80158512    -0.55200
O1429       O  0.96816039  0.34864789  0.83845382    -0.54400
C1430       C  0.54250443  0.25334789  0.93258873    -0.00200
O1431       O  0.56933218  0.28567968  0.88223063    -0.55600
C1432       C  0.57206900  0.33787766  0.77784959     0.77100
O1433       O  0.52435281  0.35376118  0.90857213    -0.56700
C1434       C  0.55193392  0.28245775  0.91369809     0.77000
C1435       C  0.61233406  0.37261782  0.90281932     0.79400
Cd1436     Cd  0.56629480  0.33743781  0.87259765     1.37500
O1437       O  0.57808889  0.31610913  0.80101169    -0.55600
O1438       O  0.61644591  0.34871744  0.88795781    -0.54400
C1439       C  0.51076383  0.35591544  0.87246168     0.79400
O1440       O  0.58717705  0.37851296  0.90946726    -0.56700
O1441       O  0.56465353  0.35891435  0.79852935    -0.55200
O1442       O  0.54280149  0.30489413  0.92812755    -0.55200
O1443       O  0.52409499  0.35366229  0.83690952    -0.54400
O1444       O  0.58278440  0.20992003  0.78800645    -0.55600
C1445       C  0.55591174  0.23115622  0.90585319     0.77100
O1446       O  0.53120693  0.16540526  0.90692307    -0.56700
C1447       C  0.57555200  0.18958618  0.76409023     0.77000
C1448       C  0.61462390  0.14660663  0.88017319     0.79400
Cd1449     Cd  0.56994428  0.18257170  0.85885752     1.37500
O1450       O  0.54918276  0.22825198  0.86561979    -0.55600
O1451       O  0.61998404  0.17213704  0.86919989    -0.54400
C1452       C  0.51543726  0.15952329  0.87459781     0.79400
O1453       O  0.58930275  0.13938833  0.88692687    -0.56700
O1454       O  0.57304217  0.21376661  0.92241349    -0.55200
O1455       O  0.56681455  0.16726866  0.78406821    -0.55200
O1456       O  0.52647242  0.15952594  0.83672249    -0.54400
C1457       C  0.99292376  0.26281303  0.92825016    -0.14200
C1458       C  0.51069889  0.24698915  0.93064058    -0.29400
H1459       H  0.99823438  0.28159112  0.90815372     0.14800
H1460       H  0.50398047  0.22611990  0.94301655     0.15400
C1461       C  0.54919876  0.24842085  0.98181591    -0.14200
C1462       C  0.55984022  0.27342188  0.51043599    -0.29400
H1463       H  0.54374535  0.22738502  0.99493602     0.14800
H1464       H  0.57820026  0.28751753  0.51221108     0.15400
C1465       C  0.95244368  0.26931491  0.51967472    -0.14200
C1466       C  0.95913060  0.25116051  0.98935414    -0.29400
H1467       H  0.94194335  0.28807992  0.50814293     0.14800
H1468       H  0.96935486  0.23257467  0.00238659     0.15400
C1469       C  0.99156283  0.26628691  0.57902285    -0.14200
C1470       C  0.51182809  0.27033684  0.54478270    -0.29400
H1471       H  0.99791809  0.26248320  0.61331986     0.14800
H1472       H  0.50576712  0.27577829  0.51118849     0.15400
C1473       C  0.75760829  0.50060458  0.92678746    -0.14200
C1474       C  0.73907752  0.01946200  0.93662417    -0.29400
H1475       H  0.77704589  0.50786486  0.91118482     0.14800
H1476       H  0.71914605  0.01191880  0.94999729     0.15400
C1477       C  0.75695901  0.05443935  0.51410823    -0.14200
C1478       C  0.73963540  0.06228815  0.98165898    -0.29400
H1479       H  0.77456907  0.04163960  0.50652613     0.14800
H1480       H  0.72263646  0.07602272  0.98839036     0.15400
C1481       C  0.74227274  0.47062705  0.51823801    -0.14200
C1482       C  0.75716119  0.46091059  0.98622164    -0.29400
H1483       H  0.72464477  0.48306128  0.50801268     0.14800
H1484       H  0.77365693  0.44696050  0.99676621     0.15400
C1485       C  0.75774140  0.50120753  0.57721021    -0.14200
C1486       C  0.74168630  0.02440401  0.57712291    -0.29400
H1487       H  0.77949040  0.50734839  0.57074248     0.14800
H1488       H  0.71985739  0.01868922  0.58364736     0.15400
C1489       C  0.75015852  0.96979165  0.06557199    -0.00200
O1490       O  0.77357531  0.93332927  0.11069287    -0.55600
C1491       C  0.82301078  0.92602051  0.22019961     0.77100
O1492       O  0.86676420  0.91658362  0.09347822    -0.56700
C1493       C  0.77505425  0.95219425  0.07971578     0.77000
C1494       C  0.84327810  0.99085217  0.12752322     0.79400
Cd1495     Cd  0.82464667  0.93399617  0.12492260     1.37500
O1496       O  0.80050461  0.92300850  0.19793059    -0.55600
O1497       O  0.83802973  0.97595126  0.16209697    -0.54400
C1498       C  0.86016961  0.89085257  0.09937457     0.79400
O1499       O  0.84430559  0.97847028  0.09126297    -0.56700
O1500       O  0.84528634  0.93041425  0.19833560    -0.55200
O1501       O  0.79924219  0.95800896  0.06462612    -0.55200
O1502       O  0.83491468  0.88466821  0.10908217    -0.54400
O1503       O  0.72248997  0.96080607  0.13231792    -0.55600
C1504       C  0.67668232  0.93286567  0.22958143     0.77100
O1505       O  0.65671352  0.98451269  0.09156364    -0.56700
C1506       C  0.72449496  0.95880016  0.09082284     0.77000
C1507       C  0.63618224  0.89893477  0.10899793     0.79400
Cd1508     Cd  0.67311582  0.94356758  0.13551158     1.37500
O1509       O  0.69721018  0.92683499  0.20567655    -0.55600
O1510       O  0.66089151  0.89374745  0.12162499    -0.54400
C1511       C  0.65358416  0.99904325  0.12513472     0.79400
O1512       O  0.63020412  0.92444510  0.10339148    -0.56700
O1513       O  0.65520718  0.94192757  0.20968994    -0.55200
O1514       O  0.70393842  0.94693023  0.07153720    -0.55200
O1515       O  0.65568337  0.98670911  0.16273600    -0.54400
C1516       C  0.74867929  0.55452121  0.06529605    -0.00200
O1517       O  0.80494165  0.59476026  0.20745523    -0.55600
C1518       C  0.77451573  0.56513712  0.09054735     0.77100
O1519       O  0.87061735  0.59756611  0.10838051    -0.56700
C1520       C  0.82609159  0.58814642  0.23092030     0.77000
C1521       C  0.84125030  0.52186146  0.13779470     0.79400
Cd1522     Cd  0.82621461  0.57860692  0.13790514     1.37500
O1523       O  0.77530241  0.56543567  0.13243599    -0.55600
O1524       O  0.83360928  0.53348928  0.17226265    -0.54400
C1525       C  0.86469344  0.62316291  0.11016101     0.79400
O1526       O  0.84624473  0.53747828  0.10370631    -0.56700
O1527       O  0.79657806  0.57417657  0.07091178    -0.55200
O1528       O  0.84698759  0.57933080  0.21084302    -0.55200
O1529       O  0.83958814  0.62844127  0.11929602    -0.54400
O1530       O  0.69747645  0.59995930  0.18887642    -0.55600
C1531       C  0.72360993  0.57233903  0.07581735     0.77100
O1532       O  0.65329780  0.54618804  0.08398479    -0.56700
C1533       C  0.67595580  0.59327346  0.21184970     0.77000
C1534       C  0.63656341  0.63467797  0.09021253     0.79400
Cd1535     Cd  0.67270350  0.58950010  0.11701369     1.37500
O1536       O  0.72450208  0.59060213  0.10536934    -0.55600
O1537       O  0.66170762  0.63992389  0.10151627    -0.54400
C1538       C  0.65279795  0.53251458  0.12086083     0.79400
O1539       O  0.62994356  0.60925693  0.08417373    -0.56700
O1540       O  0.69962323  0.56689488  0.05972507    -0.55200
O1541       O  0.65386525  0.58674256  0.19087088    -0.52000
O1542       O  0.65738522  0.54618520  0.15524920    -0.54400
C1543       C  0.75594224  0.96755321  0.43395490    -0.00200
O1544       O  0.77832794  0.93534986  0.38279955    -0.55600
C1545       C  0.82394335  0.92694955  0.26886332     0.77100
O1546       O  0.85207420  0.97719524  0.39436523    -0.56700
C1547       C  0.78068469  0.95410117  0.41149507     0.77000
C1548       C  0.86401314  0.89263962  0.39603404     0.79400
Cd1549     Cd  0.82866114  0.93624655  0.36299525     1.37500
O1550       O  0.80251287  0.92334619  0.29325077    -0.55600
O1551       O  0.83814474  0.88743828  0.38988707    -0.54400
C1552       C  0.84632207  0.99270530  0.36074214     0.79400
O1553       O  0.87221668  0.91807319  0.39274623    -0.56700
O1554       O  0.84672112  0.93331941  0.28818627    -0.55200
O1555       O  0.80548645  0.96159231  0.42105012    -0.55200
O1556       O  0.83767398  0.98094396  0.32616441    -0.54400
O1557       O  0.69874199  0.92530151  0.30126974    -0.55600
C1558       C  0.72794018  0.95549051  0.41598836     0.77100
O1559       O  0.65461190  0.97910598  0.40237841    -0.56700
C1560       C  0.67730587  0.93151527  0.27819502     0.77000
C1561       C  0.63953968  0.89060014  0.40058597     0.79400
Cd1562     Cd  0.67551036  0.93732676  0.37280292     1.37500
O1563       O  0.72652807  0.93945693  0.38347119    -0.55600
O1564       O  0.66398939  0.88641924  0.38705316    -0.54400
C1565       C  0.65440141  0.99182353  0.36471214     0.79400
O1566       O  0.63402679  0.91558621  0.40868571    -0.56700
O1567       O  0.70452388  0.96132468  0.43179304    -0.55200
O1568       O  0.65600755  0.93860932  0.29903223    -0.55200
O1569       O  0.65999127  0.97795377  0.33143362    -0.54400
C1570       C  0.74444565  0.55203426  0.43523756    -0.00200
O1571       O  0.69741712  0.59620238  0.28424229    -0.55600
C1572       C  0.72031172  0.56387688  0.40755983     0.77100
O1573       O  0.62926312  0.59745492  0.38133057    -0.56700
C1574       C  0.67596639  0.59109912  0.26042501     0.77000
C1575       C  0.65504766  0.52392469  0.35581329     0.79400
Cd1576     Cd  0.67268387  0.58036129  0.35445219     1.37500
O1577       O  0.72334106  0.57946078  0.37272029    -0.55600
O1578       O  0.66512712  0.53630683  0.32144684    -0.54400
C1579       C  0.63678945  0.62308579  0.38061631     0.79400
O1580       O  0.64864627  0.53874632  0.38781697    -0.56700
O1581       O  0.69531402  0.55865669  0.41929054    -0.55200
O1582       O  0.65398473  0.58238615  0.28033082    -0.55200
O1583       O  0.66237834  0.62905961  0.37311538    -0.54400
O1584       O  0.80517875  0.59378720  0.30214879    -0.55600
C1585       C  0.77319465  0.56211265  0.41638885     0.77100
O1586       O  0.84872544  0.53429662  0.40440237    -0.56700
C1587       C  0.82631455  0.58800666  0.27944253     0.77000
C1588       C  0.86541689  0.62168548  0.39963382     0.79400
Cd1589     Cd  0.82721417  0.57735205  0.37379828     1.37500
O1590       O  0.77569120  0.57595570  0.37988289    -0.55600
O1591       O  0.84058454  0.62704472  0.38799230    -0.54400
C1592       C  0.84565085  0.52177560  0.36836479     0.79400
O1593       O  0.87077662  0.59611831  0.40665138    -0.56700
O1594       O  0.79613384  0.55709192  0.43597512    -0.55200
O1595       O  0.84757975  0.57958752  0.30060429    -0.55200
O1596       O  0.83695942  0.53584683  0.33511470    -0.54400
C1597       C  0.95905965  0.76448860  0.06681441    -0.00200
O1598       O  0.92842866  0.78640535  0.12046833    -0.55600
C1599       C  0.91956129  0.83237236  0.23029160     0.77100
O1600       O  0.96745759  0.86354591  0.10267674    -0.56700
C1601       C  0.94639579  0.78904231  0.08971834     0.77000
C1602       C  0.88214545  0.87025508  0.10283130     0.79400
Cd1603     Cd  0.92736379  0.83704122  0.13560002     1.37500
O1604       O  0.91511541  0.81092138  0.20737086    -0.55600
O1605       O  0.87734681  0.84497347  0.11565544    -0.54400
C1606       C  0.98232732  0.85937510  0.13706223     0.79400
O1607       O  0.90747965  0.87832262  0.09968494    -0.56700
O1608       O  0.92583599  0.85515555  0.20925959    -0.55200
O1609       O  0.95348208  0.81396625  0.07819496    -0.55200
O1610       O  0.97027184  0.84954145  0.17167186    -0.54400
O1611       O  0.92322300  0.70748228  0.20118112    -0.55600
C1612       C  0.94712683  0.73613962  0.08510019     0.77100
O1613       O  0.97384669  0.66600286  0.09212074    -0.56700
C1614       C  0.92802572  0.68595481  0.22573117     0.77000
C1615       C  0.88696480  0.64507319  0.10805392     0.79400
Cd1616     Cd  0.93281869  0.68258468  0.13072313     1.37500
O1617       O  0.92946956  0.73376125  0.11628191    -0.55600
O1618       O  0.88253447  0.67038144  0.11600048    -0.54400
C1619       C  0.98852446  0.66462162  0.12720505     0.79400
O1620       O  0.91220014  0.63868813  0.10383278    -0.56700
O1621       O  0.95563639  0.71321960  0.07151755    -0.55200
O1622       O  0.93426340  0.66403814  0.20635527    -0.55200
O1623       O  0.97616324  0.66713742  0.16362348    -0.54400
C1624       C  0.54254535  0.76822511  0.05596306    -0.00200
O1625       O  0.57925944  0.71383988  0.19456331    -0.55600
C1626       C  0.55195379  0.74087547  0.07848194     0.77100
O1627       O  0.58941703  0.64926368  0.08448420    -0.56700
C1628       C  0.57853569  0.69097896  0.21757795     0.77000
C1629       C  0.51606008  0.66429217  0.12496620     0.79400
Cd1630     Cd  0.57009364  0.68895552  0.12294901     1.37500
O1631       O  0.57741154  0.73707275  0.08911401    -0.55600
O1632       O  0.53064044  0.66642720  0.15985947    -0.54400
C1633       C  0.61487230  0.65583567  0.09151001     0.79400
O1634       O  0.52836982  0.66816350  0.08803343    -0.56700
O1635       O  0.53517010  0.72061379  0.08743926    -0.55200
O1636       O  0.57577991  0.66869027  0.19664590    -0.55200
O1637       O  0.61995130  0.67996477  0.10616214    -0.54400
O1638       O  0.58202739  0.81555660  0.20491030    -0.55600
C1639       C  0.55167030  0.79266165  0.08402662     0.77100
O1640       O  0.52741912  0.86451358  0.10372719    -0.56700
C1641       C  0.57766843  0.83672698  0.22784584     0.77000
C1642       C  0.61406048  0.87712305  0.10796954     0.79400
Cd1643     Cd  0.56837621  0.84066881  0.13445413     1.37500
O1644       O  0.56435647  0.78967367  0.12094746    -0.55600
O1645       O  0.61843699  0.85177411  0.11919881    -0.54400
C1646       C  0.51331610  0.85932756  0.13857687     0.79400
O1647       O  0.58890082  0.88379348  0.10208814    -0.56700
O1648       O  0.54817851  0.81764292  0.07012618    -0.55200
O1649       O  0.57080676  0.85908553  0.20721184    -0.55200
O1650       O  0.52590442  0.84913191  0.17209377    -0.54400
C1651       C  0.96172685  0.75749654  0.43902623    -0.00200
O1652       O  0.93060939  0.73026216  0.38935893    -0.55600
C1653       C  0.92772547  0.68558972  0.27438010     0.77100
O1654       O  0.97560221  0.66030280  0.40362710    -0.56700
C1655       C  0.95101968  0.73083030  0.41659713     0.77000
C1656       C  0.88802691  0.64330218  0.39807271     0.79400
Cd1657     Cd  0.93380573  0.68057986  0.36960581     1.37500
O1658       O  0.92438507  0.70714759  0.29689997    -0.55600
O1659       O  0.88372007  0.66851309  0.38601186    -0.54400
C1660       C  0.98882625  0.66221319  0.36734987     0.79400
O1661       O  0.91329607  0.63669694  0.40286788    -0.56700
O1662       O  0.93223981  0.66292076  0.29590696    -0.55200
O1663       O  0.96209513  0.70748195  0.42453410    -0.55200
O1664       O  0.97516016  0.66797532  0.33238395    -0.54400
O1665       O  0.91364721  0.80960024  0.30290869    -0.55600
C1666       C  0.94554808  0.78326362  0.42189742     0.77100
O1667       O  0.96932048  0.85381249  0.40629069    -0.56700
C1668       C  0.91951102  0.83150983  0.27901074     0.77000
C1669       C  0.88453830  0.87052880  0.39928231     0.79400
Cd1670     Cd  0.92678535  0.83336219  0.37407577     1.37500
O1671       O  0.92584893  0.78221659  0.39337332    -0.55600
O1672       O  0.87799583  0.84504488  0.39292231    -0.54400
C1673       C  0.98263756  0.85266230  0.37032720     0.79400
O1674       O  0.91031460  0.87695209  0.40174248    -0.56700
O1675       O  0.95299609  0.80766059  0.43294640    -0.55200
O1676       O  0.92706959  0.85321851  0.29914620    -0.55200
O1677       O  0.96896051  0.84666776  0.33583356    -0.54400
C1678       C  0.54749888  0.75282661  0.43761169    -0.00200
O1679       O  0.57048204  0.78250275  0.37937689    -0.55600
C1680       C  0.57810038  0.83560075  0.27624906     0.77100
O1681       O  0.52961884  0.85562983  0.40281962    -0.56700
C1682       C  0.55537895  0.78077560  0.41378131     0.77000
C1683       C  0.61709154  0.86891997  0.39940374     0.79400
Cd1684     Cd  0.57050733  0.83435315  0.36997281     1.37500
O1685       O  0.58334333  0.81347949  0.29911544    -0.55600
O1686       O  0.62107413  0.84470515  0.38552607    -0.54400
C1687       C  0.51482766  0.85261113  0.36823473     0.79400
O1688       O  0.59198397  0.87510765  0.40582552    -0.56700
O1689       O  0.57119867  0.85680298  0.29702742    -0.55200
O1690       O  0.54863007  0.80389624  0.42899113    -0.55200
O1691       O  0.52697040  0.84514219  0.33384480    -0.54400
O1692       O  0.58062063  0.71034143  0.29042096    -0.55600
C1693       C  0.55794531  0.72900682  0.41042126     0.77100
O1694       O  0.53247074  0.65944134  0.40403627    -0.56700
C1695       C  0.57869005  0.68920896  0.26621499     0.77000
C1696       C  0.61572266  0.64446784  0.38221621     0.79400
Cd1697     Cd  0.57136863  0.68072392  0.36052811     1.37500
O1698       O  0.57562437  0.71146979  0.42486103    -0.55600
O1699       O  0.62119358  0.67004873  0.37157705    -0.54400
C1700       C  0.51720376  0.65676860  0.37000938     0.79400
O1701       O  0.59035217  0.63727425  0.38880085    -0.56700
O1702       O  0.54884394  0.72549550  0.37152041    -0.55200
O1703       O  0.57518426  0.66551678  0.28587296    -0.55200
O1704       O  0.52873570  0.66006295  0.33263933    -0.54400
C1705       C  0.99330002  0.76389961  0.42810435    -0.14200
C1706       C  0.51569390  0.74674544  0.44357404    -0.29400
H1707       H  0.99848485  0.78279444  0.40819497     0.14800
H1708       H  0.51038043  0.72761325  0.46276399     0.15400
C1709       C  0.56235501  0.75268780  0.48299091    -0.14200
C1710       C  0.55815037  0.77221850  0.01202922    -0.29400
H1711       H  0.58436579  0.74842300  0.47837175     0.14800
H1712       H  0.57581734  0.78727091  0.01229165     0.15400
C1713       C  0.95187520  0.76845187  0.01709356    -0.14200
C1714       C  0.95953833  0.75194074  0.48930897    -0.29400
H1715       H  0.93963194  0.78634919  0.00684104     0.14800
H1716       H  0.96986508  0.73342381  0.50237249     0.15400
C1717       C  0.99116703  0.76546211  0.07748546    -0.14200
C1718       C  0.51059567  0.76931784  0.04702968    -0.29400
H1719       H  0.99728384  0.76129088  0.11179101     0.14800
H1720       H  0.50460835  0.77523836  0.01356956     0.15400
C1721       C  0.75897146  0.00007158  0.42405624    -0.14200
C1722       C  0.73995021  0.51934047  0.43799163    -0.29400
H1723       H  0.77782801  0.00773070  0.40714319     0.14800
H1724       H  0.71988590  0.51201591  0.45116116     0.15400
C1725       C  0.75600879  0.55329532  0.01604289    -0.14200
C1726       C  0.74064388  0.56270292  0.48200122    -0.29400
H1727       H  0.77278867  0.53945048  0.00836014     0.14800
H1728       H  0.72369577  0.57662133  0.48824144     0.15400
C1729       C  0.74306435  0.97067995  0.01598874    -0.14200
C1730       C  0.75971503  0.96080052  0.48395416    -0.29400
H1731       H  0.72532632  0.98314836  0.00648264     0.14800
H1732       H  0.77723334  0.94816775  0.49446067     0.15400
C1733       C  0.75822038  0.00038581  0.07608971    -0.14200
C1734       C  0.74017976  0.52386232  0.07944403    -0.29400
H1735       H  0.78008309  0.00685182  0.07159254     0.14800
H1736       H  0.71804739  0.51855185  0.08379450     0.15400
C1737       C  0.75129069  0.97250708  0.56526180    -0.00200
O1738       O  0.77452616  0.93764545  0.61365507    -0.55600
C1739       C  0.82396608  0.93015180  0.72357928     0.77100
O1740       O  0.86830401  0.92175518  0.59854328    -0.56700
C1741       C  0.77613123  0.95530071  0.58105038     0.77000
C1742       C  0.84315685  0.99548766  0.63470255     0.79400
Cd1743     Cd  0.82556065  0.93878288  0.62910439     1.37500
O1744       O  0.80202716  0.92482846  0.70096687    -0.55600
O1745       O  0.83307153  0.98102475  0.66694544    -0.54400
C1746       C  0.86202482  0.89604709  0.60578858     0.79400
O1747       O  0.84897008  0.98283431  0.59997857    -0.56700
O1748       O  0.84586413  0.93746355  0.70230400    -0.55200
O1749       O  0.80044764  0.96061236  0.56603395    -0.55200
O1750       O  0.83701708  0.88975881  0.61679132    -0.54400
O1751       O  0.72337401  0.96453540  0.63235002    -0.55600
C1752       C  0.67662655  0.93744491  0.73029445     0.77100
O1753       O  0.65672880  0.98779806  0.59110952    -0.56700
C1754       C  0.72529201  0.96233837  0.59085444     0.77000
C1755       C  0.63558335  0.90314791  0.61242604     0.79400
Cd1756     Cd  0.67358608  0.94768613  0.63629266     1.37500
O1757       O  0.69668737  0.92991231  0.70663811    -0.55600
O1758       O  0.66087596  0.89792537  0.62146960    -0.54400
C1759       C  0.65435899  0.00294851  0.62418002     0.79400
O1760       O  0.62927158  0.92866903  0.60939152    -0.56700
O1761       O  0.65611741  0.94837237  0.71026108    -0.55200
O1762       O  0.70435143  0.95092631  0.57183961    -0.55200
O1763       O  0.65715343  0.99131239  0.66218803    -0.54400
C1764       C  0.74770123  0.55316435  0.56573949    -0.00200
O1765       O  0.80245018  0.59162014  0.70661948    -0.55600
C1766       C  0.77350770  0.56390313  0.59061445     0.77100
O1767       O  0.86748829  0.60002847  0.60465260    -0.56700
C1768       C  0.82415160  0.58671564  0.72984401     0.77000
C1769       C  0.84284375  0.52286742  0.63525772     0.79400
Cd1770     Cd  0.82500543  0.57853277  0.63666631     1.37500
O1771       O  0.77468276  0.56359741  0.63248453    -0.55600
O1772       O  0.83525697  0.53411386  0.67005827    -0.54400
C1773       C  0.86073925  0.62518065  0.60917460     0.79400
O1774       O  0.84682737  0.53868501  0.60107960    -0.56700
O1775       O  0.79511654  0.57376983  0.57061852    -0.55200
O1776       O  0.84587316  0.58013924  0.70950130    -0.55200
O1777       O  0.83585001  0.62915606  0.62112866    -0.54400
O1778       O  0.69613854  0.60085301  0.69109405    -0.55600
C1779       C  0.72262167  0.57090556  0.57687336     0.77100
O1780       O  0.65175522  0.54649998  0.58794683    -0.56700
C1781       C  0.67480725  0.59304832  0.71385377     0.77000
C1782       C  0.63702729  0.63568168  0.59150576     0.79400
Cd1783     Cd  0.67217153  0.58983443  0.61868350     1.37500
O1784       O  0.72385050  0.58937262  0.60613120    -0.55600
O1785       O  0.66188776  0.64033461  0.60474163    -0.54400
C1786       C  0.65210726  0.53365584  0.62553773     0.79400
O1787       O  0.63026700  0.61050195  0.58378653    -0.56700
O1788       O  0.69844005  0.56547251  0.56153174    -0.55200
O1789       O  0.65307458  0.58574424  0.69255175    -0.52000
O1790       O  0.65655959  0.54807020  0.65910128    -0.54400
C1791       C  0.75456650  0.96735761  0.93432506    -0.00200
O1792       O  0.77706662  0.93714214  0.88038673    -0.55600
C1793       C  0.82449937  0.93008482  0.77209871     0.77100
O1794       O  0.84812384  0.97731287  0.90266056    -0.56700
C1795       C  0.77927634  0.95408404  0.91177081     0.77000
C1796       C  0.86312385  0.89245461  0.89794975     0.79400
Cd1797     Cd  0.82819029  0.93665203  0.86610992     1.37500
O1798       O  0.80314524  0.92430754  0.79589267    -0.55600
O1799       O  0.83731116  0.88717725  0.89131192    -0.54400
C1800       C  0.84612781  0.99301061  0.86806611     0.79400
O1801       O  0.87122164  0.91790371  0.89528622    -0.56700
O1802       O  0.84675825  0.93750862  0.79197732    -0.55200
O1803       O  0.80397489  0.95990380  0.92426835    -0.55200
O1804       O  0.84118864  0.98144895  0.83170584    -0.54400
O1805       O  0.69699192  0.92673575  0.80229634    -0.55600
C1806       C  0.72649233  0.95579111  0.91646775     0.77100
O1807       O  0.65394382  0.98191725  0.90367587    -0.56700
C1808       C  0.67662083  0.93537102  0.77879926     0.77000
C1809       C  0.63605355  0.89439066  0.90091433     0.79400
Cd1810     Cd  0.67391090  0.93977814  0.87336498     1.37500
O1811       O  0.72478456  0.93912682  0.88481672    -0.55600
O1812       O  0.66118423  0.88950127  0.89178431    -0.54400
C1813       C  0.65450960  0.99492494  0.86620005     0.79400
O1814       O  0.63005933  0.91982833  0.90379772    -0.56700
O1815       O  0.70326913  0.96272525  0.93173426    -0.55200
O1816       O  0.65580253  0.94395354  0.79920583    -0.55200
O1817       O  0.66111545  0.98142842  0.83302799    -0.54400
C1818       C  0.74405712  0.55322399  0.93481472    -0.00200
O1819       O  0.69540475  0.59769510  0.78658293    -0.55600
C1820       C  0.71973066  0.56532263  0.90780836     0.77100
O1821       O  0.62810609  0.60020506  0.88379592    -0.56700
C1822       C  0.67465380  0.59065948  0.76248376     0.77000
C1823       C  0.65150308  0.52581122  0.86541593     0.79400
Cd1824     Cd  0.67098136  0.58191933  0.85716604     1.37500
O1825       O  0.72229602  0.57915129  0.87116687    -0.55600
O1826       O  0.65709310  0.53744865  0.82799627    -0.54400
C1827       C  0.63568459  0.62578785  0.88158970     0.79400
O1828       O  0.65028599  0.54132338  0.89827369    -0.56700
O1829       O  0.69499412  0.56189092  0.92182892    -0.55200
O1830       O  0.65325326  0.58022428  0.78220681    -0.55200
O1831       O  0.66124298  0.63147637  0.87347382    -0.54400
O1832       O  0.80260244  0.59021741  0.80093005    -0.55600
C1833       C  0.77258416  0.56294594  0.91544537     0.77100
O1834       O  0.84724846  0.53493028  0.90645845    -0.56700
C1835       C  0.82431400  0.58642422  0.77831428     0.77000
C1836       C  0.86269442  0.62344149  0.89733453     0.79400
Cd1837     Cd  0.82608259  0.57756566  0.87280604     1.37500
O1838       O  0.77489482  0.57770187  0.87977909    -0.55600
O1839       O  0.83784912  0.62798257  0.88487264    -0.54400
C1840       C  0.84512524  0.52195554  0.87070664     0.79400
O1841       O  0.86867878  0.59813171  0.90539395    -0.56700
O1842       O  0.79553874  0.55682302  0.93405958    -0.55200
O1843       O  0.84634481  0.58028509  0.79952759    -0.55200
O1844       O  0.83734887  0.53566944  0.83649240    -0.54400
C1845       C  0.95689757  0.76652240  0.56894402    -0.00200
O1846       O  0.92845121  0.78966095  0.62417358    -0.55600
C1847       C  0.92048091  0.83602323  0.73249397     0.77100
O1848       O  0.96983171  0.86446629  0.60609563    -0.56700
C1849       C  0.94509635  0.79169860  0.59156258     0.77000
C1850       C  0.88389933  0.87538793  0.60831226     0.79400
Cd1851     Cd  0.92829843  0.84056550  0.63818936     1.37500
O1852       O  0.91429563  0.81504930  0.70928930    -0.55600
O1853       O  0.87883010  0.85006775  0.62055148    -0.54400
C1854       C  0.98367532  0.86080954  0.64169003     0.79400
O1855       O  0.90929962  0.88310019  0.60423660    -0.56700
O1856       O  0.92873389  0.85834281  0.71189861    -0.55200
O1857       O  0.95193602  0.81645827  0.57860432    -0.55200
O1858       O  0.97056435  0.85242512  0.67609928    -0.54400
O1859       O  0.91570001  0.70805582  0.70228005    -0.55600
C1860       C  0.94383254  0.73869914  0.58732253     0.77100
O1861       O  0.96734307  0.66667010  0.59268168    -0.56700
C1862       C  0.92243195  0.68676324  0.72601502     0.77000
C1863       C  0.88217044  0.64783401  0.60720550     0.79400
Cd1864     Cd  0.92737936  0.68533046  0.63130204     1.37500
O1865       O  0.92468301  0.73692907  0.61628586    -0.55600
O1866       O  0.87716631  0.67260498  0.61756670    -0.54400
C1867       C  0.98259109  0.66628597  0.62721339     0.79400
O1868       O  0.90745792  0.64241160  0.60092552    -0.56700
O1869       O  0.95259154  0.71552116  0.57543854    -0.55200
O1870       O  0.93040683  0.66573989  0.70591866    -0.55200
O1871       O  0.97100476  0.67075498  0.66369325    -0.54400
C1872       C  0.54402724  0.77025708  0.55558173    -0.00200
O1873       O  0.58270953  0.71556602  0.69361152    -0.55600
C1874       C  0.55335796  0.74297887  0.57824346     0.77100
O1875       O  0.59029959  0.65142429  0.58359420    -0.56700
C1876       C  0.58029770  0.69273591  0.71653861     0.77000
C1877       C  0.51694932  0.66741690  0.62846448     0.79400
Cd1878     Cd  0.57129538  0.69113680  0.62277119     1.37500
O1879       O  0.57857374  0.73959733  0.59059030    -0.55600
O1880       O  0.53125731  0.67272695  0.66266558    -0.54400
C1881       C  0.61570825  0.65722226  0.59242620     0.79400
O1882       O  0.52950549  0.66804476  0.59149948    -0.56700
O1883       O  0.53685524  0.72218252  0.58490546    -0.55200
O1884       O  0.57576081  0.67061212  0.69573664    -0.55200
O1885       O  0.62099304  0.68093623  0.60840011    -0.54400
O1886       O  0.57987041  0.81739302  0.70668637    -0.55600
C1887       C  0.55304468  0.79491530  0.58367840     0.77100
O1888       O  0.52630684  0.86384299  0.60196342    -0.56700
C1889       C  0.57552862  0.83851225  0.72977617     0.77000
C1890       C  0.61352920  0.88118898  0.61165250     0.79400
Cd1891     Cd  0.56819268  0.84326265  0.63556498     1.37500
O1892       O  0.56430542  0.79201379  0.62178812    -0.55600
O1893       O  0.61824518  0.85560606  0.62071547    -0.54400
C1894       C  0.51267204  0.86075220  0.63767987     0.79400
O1895       O  0.58822687  0.88774111  0.60734422    -0.56700
O1896       O  0.55055100  0.81993136  0.56907093    -0.55200
O1897       O  0.56951333  0.86110795  0.70907029    -0.55200
O1898       O  0.52585871  0.85339444  0.67231409    -0.54400
C1899       C  0.96103527  0.75838594  0.93518191    -0.00200
O1900       O  0.94868818  0.73159725  0.87013868    -0.55600
C1901       C  0.92274329  0.68600637  0.77453348     0.77100
O1902       O  0.97349993  0.66424844  0.90557502    -0.56700
C1903       C  0.94892735  0.73283646  0.91193697     0.77000
C1904       C  0.88483359  0.64550194  0.89571419     0.79400
Cd1905     Cd  0.93114182  0.68193559  0.86836084     1.37500
O1906       O  0.91656387  0.70669815  0.79745608    -0.55600
O1907       O  0.88052173  0.67016231  0.88053052    -0.54400
C1908       C  0.98602333  0.66187190  0.86923553     0.79400
O1909       O  0.90999246  0.63949206  0.90375581    -0.56700
O1910       O  0.93076803  0.66415948  0.79534738    -0.55200
O1911       O  0.93823439  0.71166349  0.93306116    -0.55200
O1912       O  0.97162051  0.66370894  0.83417379    -0.54400
O1913       O  0.91411189  0.81283942  0.80430747    -0.55600
C1914       C  0.94451168  0.78410577  0.92057215     0.77100
O1915       O  0.96972342  0.85615833  0.90953497    -0.56700
C1916       C  0.92015890  0.83494821  0.78107467     0.77000
C1917       C  0.88389381  0.87063310  0.90127520     0.79400
Cd1918     Cd  0.92733743  0.83523535  0.87571567     1.37500
O1919       O  0.92563979  0.78351931  0.89067432    -0.55600
O1920       O  0.87794791  0.84525824  0.89332648    -0.54400
C1921       C  0.98388332  0.85459312  0.87447396     0.79400
O1922       O  0.90950082  0.87745429  0.90533608    -0.56700
O1923       O  0.95128346  0.80809298  0.93422979    -0.55200
O1924       O  0.92774856  0.85646286  0.80173530    -0.55200
O1925       O  0.97090144  0.84799459  0.83960356    -0.54400
C1926       C  0.54565098  0.75333413  0.93704622    -0.00200
O1927       O  0.56877514  0.78437179  0.88048574    -0.55600
C1928       C  0.57534539  0.83723112  0.77830475     0.77100
O1929       O  0.52709746  0.85361890  0.90985297    -0.56700
C1930       C  0.55353257  0.78184645  0.91472583     0.77000
C1931       C  0.61379238  0.87249226  0.90098291     0.79400
Cd1932     Cd  0.56823198  0.83634000  0.87271449     1.37500
O1933       O  0.58036901  0.81511635  0.80130534    -0.55600
O1934       O  0.61830467  0.84748862  0.89121101    -0.54400
C1935       C  0.51263798  0.85398997  0.87451756     0.79400
O1936       O  0.58850552  0.87888431  0.90451812    -0.56700
O1937       O  0.56845224  0.85842205  0.79908061    -0.55200
O1938       O  0.54657989  0.80460832  0.93096303    -0.55200
O1939       O  0.52508841  0.85018545  0.83861639    -0.54400
O1940       O  0.58423245  0.71184913  0.78924809    -0.55600
C1941       C  0.55633938  0.73027681  0.90878550     0.77100
O1942       O  0.53121427  0.65989851  0.89766329    -0.56700
C1943       C  0.58007970  0.69096230  0.76496658     0.77000
C1944       C  0.61458971  0.64718312  0.88197615     0.79400
Cd1945     Cd  0.57055997  0.68317630  0.85792587     1.37500
O1946       O  0.57323208  0.71204683  0.92334619    -0.55600
O1947       O  0.62025649  0.67284477  0.87224160    -0.54400
C1948       C  0.51577890  0.65997246  0.86346140     0.79400
O1949       O  0.58906661  0.63983608  0.88638158    -0.56700
O1950       O  0.54830471  0.72806388  0.86903224    -0.55200
O1951       O  0.57371098  0.66767744  0.78423569    -0.55200
O1952       O  0.52716238  0.66619121  0.82665111    -0.54400
C1953       C  0.99186600  0.76496007  0.92136605    -0.14200
C1954       C  0.51387808  0.74677055  0.94259944    -0.29400
H1955       H  0.99738224  0.78592394  0.90838146     0.14800
H1956       H  0.50873045  0.72734238  0.96113679     0.15400
C1957       C  0.56039621  0.75191368  0.98248676    -0.14200
C1958       C  0.55973515  0.77363360  0.51157263    -0.29400
H1959       H  0.58235553  0.74740572  0.97789686     0.14800
H1960       H  0.57729988  0.78879633  0.51157198     0.15400
C1961       C  0.95040958  0.76992323  0.51905703    -0.14200
C1962       C  0.96138983  0.75191808  0.98563901    -0.29400
H1963       H  0.93972017  0.78852860  0.50733925     0.14800
H1964       H  0.97316093  0.73384138  0.99685174     0.15400
C1965       C  0.98899950  0.76636832  0.57935910    -0.14200
C1966       C  0.51203323  0.77117485  0.54659592    -0.29400
H1967       H  0.99505614  0.76184099  0.61360636     0.14800
H1968       H  0.50601545  0.77714080  0.51313732     0.15400
C1969       C  0.75781973  0.99992542  0.92527576    -0.14200
C1970       C  0.73921992  0.52060940  0.93750012    -0.29400
H1971       H  0.77696850  0.00765000  0.90928582     0.14800
H1972       H  0.71903097  0.51349123  0.95045709     0.15400
C1973       C  0.75516587  0.55209331  0.51656380    -0.14200
C1974       C  0.74122533  0.56400342  0.98170573    -0.29400
H1975       H  0.77227637  0.53861480  0.50900902     0.14800
H1976       H  0.72476156  0.57840528  0.98823574     0.15400
C1977       C  0.74437546  0.97199919  0.51558737    -0.14200
C1978       C  0.75812745  0.95974382  0.98394139    -0.29400
H1979       H  0.72629931  0.98376865  0.50554236     0.14800
H1980       H  0.77516014  0.94632975  0.99395436     0.15400
C1981       C  0.75975150  0.00333916  0.57366319    -0.14200
C1982       C  0.73973041  0.52242209  0.57973197    -0.29400
H1983       H  0.78133426  0.00963990  0.56620470     0.14800
H1984       H  0.71774961  0.51687164  0.58519344     0.15400
loop_ 
_geom_bond_atom_site_label_1 
_geom_bond_atom_site_label_2 
_geom_bond_distance 
_geom_bond_site_symmetry_2 
_ccdc_geom_bond_type 
C1            C5   1.527       .  S
C1           C18   1.520       .  S
C1          C241   1.533       .  S
C1          C245   1.543       .  S
O2            C5   1.271       .  A
O2           Cd7   2.486       .  S
C3           O12   1.263       .  A
C3            O8   1.271       .  A
C3           C57   1.470       .  S
O4           C10   1.261       .  A
O4           Cd7   2.424       .  S
C5           O13   1.264       .  A
C6           O11   1.266       .  A
C6            O9   1.262       .  A
C6          C529   1.449       .  S
Cd7          O14   2.475       .  S
Cd7          O13   2.450       .  S
Cd7          O12   2.412       .  S
Cd7           O8   2.532       .  S
Cd7          O11   2.455       .  S
Cd7           O9   2.404       .  S
C10          O14   1.265       .  A
C10         C114   1.458       .  S
O15          C18   1.265       .  A
O15         Cd20   2.482       .  S
C16          O25   1.264       .  A
C16          O21   1.270       .  A
C16          C72   1.466       .  S
O17          C23   1.265       .  A
O17         Cd20   2.486       .  S
C18          O26   1.268       .  A
C19          O24   1.264       .  A
C19          O22   1.267       .  A
C19         C154   1.465       .  S
Cd20         O27   2.393       .  S
Cd20         O26   2.441       .  S
Cd20         O25   2.404       .  S
Cd20         O21   2.507       .  S
Cd20         O24   2.427       .  S
Cd20         O22   2.497       .  S
C23          O27   1.261       .  A
C23         C546   1.453       .  S
C28          C30   1.524       .  S
C28          C43   1.534       .  S
C28         C237   1.530       .  S
C28         C246   1.547       .  S
O29          C32   1.270       .  A
O29         Cd34   2.513       .  S
C30          O39   1.269       .  A
C30          O35   1.265       .  A
O31          C37   1.265       .  A
O31         Cd34   2.450       .  S
C32          O40   1.264       .  A
C32          C99   1.467       .  S
C33          O38   1.265       .  A
C33          O36   1.261       .  A
C33         C502   1.454   1_545  S
Cd34         O41   2.505       .  S
Cd34         O40   2.406       .  S
Cd34         O39   2.460       .  S
Cd34         O35   2.491       .  S
Cd34         O38   2.483       .  S
Cd34         O36   2.400       .  S
C37          O41   1.268       .  A
C37         C127   1.472       .  S
O42          C45   1.271       .  A
O42         Cd47   2.531       .  S
C43          O52   1.264       .  A
C43          O48   1.273       .  A
O44          C50   1.268       .  A
O44         Cd47   2.461       .  S
C45          O53   1.263       .  A
C45          C86   1.468       .  S
C46          O51   1.263       .  A
C46          O49   1.267       .  A
C46         C145   1.471       .  S
Cd47         O54   2.393       .  S
Cd47         O53   2.407       .  S
Cd47         O52   2.478       .  S
Cd47         O48   2.498       .  S
Cd47         O51   2.458       .  S
Cd47         O49   2.495       .  S
C50          O54   1.261       .  A
C50         C519   1.449       .  S
C55          C59   1.541       .  S
C55          C70   1.541       .  S
C55         C233   1.569       .  S
C55         C242   1.541       .  S
O56          C59   1.271       .  A
O56         Cd61   2.507       .  S
C57          O66   1.264       .  A
C57          O62   1.269       .  A
O58          C64   1.266       .  A
O58         Cd61   2.444       .  S
C59          O67   1.262       .  A
C60          O65   1.261       .  A
C60          O63   1.267       .  A
C60         C181   1.471       .  S
Cd61         O68   2.408       .  S
Cd61         O67   2.465       .  S
Cd61         O66   2.418       .  S
Cd61         O62   2.528       .  S
Cd61         O65   2.441       .  S
Cd61         O63   2.525       .  S
C64          O68   1.266       .  A
C64         C600   1.449       .  S
O69          C72   1.270       .  A
O69         Cd74   2.520       .  S
C70          O79   1.265       .  A
C70          O75   1.268       .  A
O71          C77   1.268       .  A
O71         Cd74   2.474       .  S
C72          O80   1.263       .  A
C73          O78   1.263       .  A
C73          O76   1.265       .  A
C73         C195   1.467       .  S
Cd74         O81   2.379       .  S
Cd74         O80   2.417       .  S
Cd74         O79   2.529       .  S
Cd74         O75   2.462       .  S
Cd74         O78   2.457       .  S
Cd74         O76   2.486       .  S
C77          O81   1.259       .  A
C77         C583   1.446       .  S
C82          C84   1.529       .  S
C82          C97   1.539       .  S
C82         C234   1.566       .  S
C82         C238   1.533       .  S
O83          C86   1.270       .  A
O83         Cd88   2.512       .  S
C84          O93   1.263       .  A
C84          O89   1.270       .  A
O85          C91   1.262       .  A
O85         Cd88   2.411       .  S
C86          O94   1.265       .  A
C87          O92   1.265       .  A
C87          O90   1.265       .  A
C87         C573   1.446   1_545  S
Cd88         O95   2.476       .  S
Cd88         O94   2.409       .  S
Cd88         O93   2.444       .  S
Cd88         O89   2.470       .  S
Cd88         O92   2.443       .  S
Cd88         O90   2.384       .  S
C91          O95   1.266       .  A
C91         C208   1.457       .  S
O96          C99   1.270       .  A
O96        Cd101   2.522       .  S
C97         O106   1.265       .  A
C97         O102   1.266       .  A
O98         C104   1.267       .  A
O98        Cd101   2.462       .  S
C99         O107   1.264       .  A
C100        O105   1.262       .  A
C100        O103   1.266       .  A
C100        C168   1.465       .  S
Cd101       O108   2.394       .  S
Cd101       O107   2.412       .  S
Cd101       O106   2.534       .  S
Cd101       O102   2.449       .  S
Cd101       O105   2.444       .  S
Cd101       O103   2.487       .  S
C104        O108   1.261       .  A
C104        C560   1.447   1_545  S
C109        C113   1.523       .  S
C109        C124   1.528       .  S
C109        C225   1.538       .  S
C109        C229   1.562       .  S
O110        C113   1.272       .  A
O110       Cd115   2.495       .  S
C111        O120   1.265       .  A
C111        O116   1.270       .  A
C111        C180   1.465       .  S
O112        C118   1.267       .  A
O112       Cd115   2.453       .  S
C113        O121   1.262       .  A
C114        O119   1.263       .  A
C114        O117   1.266       .  A
Cd115       O122   2.386       .  S
Cd115       O121   2.426       .  S
Cd115       O120   2.403       .  S
Cd115       O116   2.512       .  S
Cd115       O119   2.423       .  S
Cd115       O117   2.472       .  S
C118        O122   1.263       .  A
C118       C1150   1.447       .  S
O123        C126   1.269       .  A
O123       Cd128   2.521       .  S
C124        O133   1.265       .  A
C124        O129   1.271       .  A
O125        C131   1.265       .  A
O125       Cd128   2.476       .  S
C126        O134   1.264       .  A
C126        C165   1.470       .  S
C127        O132   1.264       .  A
C127        O130   1.268       .  A
Cd128       O135   2.404       .  S
Cd128       O134   2.426       .  S
Cd128       O133   2.470       .  S
Cd128       O129   2.501       .  S
Cd128       O132   2.447       .  S
Cd128       O130   2.509       .  S
C131        O135   1.262       .  A
C131       C1133   1.452       .  S
C136        C138   1.524       .  S
C136        C151   1.525       .  S
C136        C222   1.530       .  S
C136        C230   1.552       .  S
O137        C140   1.268       .  A
O137       Cd142   2.531       .  S
C138        O147   1.257       .  A
C138        O143   1.271       .  A
O139        C145   1.265       .  A
O139       Cd142   2.474       .  S
C140        O148   1.261       .  A
C140        C207   1.467       .  S
C141        O146   1.271       .  A
C141        O144   1.265       .  A
C141       C1123   1.452   1_455  S
Cd142       O149   2.490       .  S
Cd142       O148   2.404       .  S
Cd142       O147   2.487       .  S
Cd142       O143   2.496       .  S
Cd142       O146   2.462       .  S
Cd142       O144   2.384       .  S
C145        O149   1.264       .  A
O150        C153   1.271       .  A
O150       Cd155   2.515       .  S
C151        O160   1.264       .  A
C151        O156   1.271       .  A
O152        C158   1.265       .  A
O152       Cd155   2.452       .  S
C153        O161   1.263       .  A
C153        C192   1.464       .  S
C154        O159   1.262       .  A
C154        O157   1.267       .  A
Cd155       O162   2.397       .  S
Cd155       O161   2.399       .  S
Cd155       O160   2.455       .  S
Cd155       O156   2.507       .  S
Cd155       O159   2.425       .  S
Cd155       O157   2.502       .  S
C158        O162   1.262       .  A
C158       C1110   1.447   1_455  S
C163        C167   1.536       .  S
C163        C178   1.547       .  S
C163        C217   1.561       .  S
C163        C226   1.538       .  S
O164        C167   1.270       .  A
O164       Cd169   2.475       .  S
C165        O174   1.263       .  A
C165        O170   1.269       .  A
O166        C172   1.267       .  A
O166       Cd169   2.454       .  S
C167        O175   1.262       .  A
C168        O173   1.263       .  A
C168        O171   1.265       .  A
Cd169       O176   2.378       .  S
Cd169       O175   2.508       .  S
Cd169       O174   2.431       .  S
Cd169       O170   2.526       .  S
Cd169       O173   2.446       .  S
Cd169       O171   2.485       .  S
C172        O176   1.263       .  A
C172       C1204   1.445       .  S
O177        C180   1.270       .  A
O177       Cd182   2.523       .  S
C178        O187   1.263       .  A
C178        O183   1.271       .  A
O179        C185   1.268       .  A
O179       Cd182   2.458       .  S
C180        O188   1.263       .  A
C181        O186   1.263       .  A
C181        O184   1.267       .  A
Cd182       O189   2.399       .  S
Cd182       O188   2.398       .  S
Cd182       O187   2.483       .  S
Cd182       O183   2.492       .  S
Cd182       O186   2.436       .  S
Cd182       O184   2.514       .  S
C185        O189   1.264       .  A
C185       C1191   1.452       .  S
C190        C194   1.528       .  S
C190        C205   1.528       .  S
C190        C218   1.552       .  S
C190        C221   1.539       .  S
O191        C194   1.268       .  A
O191       Cd196   2.484       .  S
C192        O201   1.264       .  A
C192        O197   1.267       .  A
O193        C199   1.265       .  A
O193       Cd196   2.450       .  S
C194        O202   1.265       .  A
C195        O200   1.261       .  A
C195        O198   1.265       .  A
Cd196       O203   2.411       .  S
Cd196       O202   2.471       .  S
Cd196       O201   2.412       .  S
Cd196       O197   2.506       .  S
Cd196       O200   2.455       .  S
Cd196       O198   2.495       .  S
C199        O203   1.263       .  A
C199       C1177   1.448   1_455  S
O204        C207   1.271       .  A
O204       Cd209   2.534       .  S
C205        O214   1.265       .  A
C205        O210   1.269       .  A
O206        C212   1.265       .  A
O206       Cd209   2.456       .  S
C207        O215   1.261       .  A
C208        O213   1.264       .  A
C208        O211   1.269       .  A
Cd209       O216   2.379       .  S
Cd209       O215   2.396       .  S
Cd209       O214   2.466       .  S
Cd209       O210   2.485       .  S
Cd209       O213   2.404       .  S
Cd209       O211   2.467       .  S
C212        O216   1.261       .  A
C212       C1164   1.445   1_455  S
C217        H219   1.086       .  S
C217       C1210   1.365       .  D
C218        H220   1.085       .  S
C218       C1209   1.367   1_455  D
C221        H223   1.089       .  S
C221        C470   1.355       .  D
C222        H224   1.090       .  S
C222        C469   1.352   1_554  D
C225        H227   1.083       .  S
C225        C474   1.349   1_554  D
C226        H228   1.086       .  S
C226        C473   1.347       .  D
C229        H231   1.085       .  S
C229       C1222   1.359       .  D
C230        H232   1.078       .  S
C230       C1221   1.369   1_455  D
C233        H235   1.085       .  S
C233        C730   1.369       .  D
C234        H236   1.082       .  S
C234        C729   1.369       .  D
C237        H239   1.087       .  S
C237        C486   1.340   1_554  D
C238        H240   1.085       .  S
C238        C485   1.342       .  D
C241        H243   1.080       .  S
C241        C490   1.345   1_554  D
C242        H244   1.085       .  S
C242        C489   1.345       .  D
C245        H247   1.088       .  S
C245        C742   1.353       .  D
C246        H248   1.087       .  S
C246        C741   1.356       .  D
C249        C253   1.528       .  S
C249        C266   1.520       .  S
C249        C489   1.536       .  S
C249        C493   1.542       .  S
O250        C253   1.272       .  A
O250       Cd255   2.484       .  S
C251        O260   1.264       .  A
C251        O256   1.271       .  A
C251        C305   1.473       .  S
O252        C258   1.262       .  A
O252       Cd255   2.428       .  S
C253        O261   1.264       .  A
C254        O259   1.266       .  A
C254        O257   1.262       .  A
C254        C777   1.454       .  S
Cd255       O262   2.493       .  S
Cd255       O261   2.454       .  S
Cd255       O260   2.423       .  S
Cd255       O256   2.532       .  S
Cd255       O259   2.469       .  S
Cd255       O257   2.414       .  S
C258        O262   1.265       .  A
C258        C362   1.461       .  S
O263        C266   1.266       .  A
O263       Cd268   2.484       .  S
C264        O273   1.264       .  A
C264        O269   1.270       .  A
C264        C320   1.466       .  S
O265        C271   1.263       .  A
O265       Cd268   2.462       .  S
C266        O274   1.267       .  A
C267        O272   1.263       .  A
C267        O270   1.267       .  A
C267        C402   1.460       .  S
Cd268       O275   2.421       .  S
Cd268       O274   2.445       .  S
Cd268       O273   2.404       .  S
Cd268       O269   2.516       .  S
Cd268       O272   2.421       .  S
Cd268       O270   2.483       .  S
C271        O275   1.263       .  A
C271        C794   1.453       .  S
C276        C278   1.525       .  S
C276        C291   1.531       .  S
C276        C485   1.532       .  S
C276        C494   1.545       .  S
O277        C280   1.271       .  A
O277       Cd282   2.517       .  S
C278        O287   1.267       .  A
C278        O283   1.266       .  A
O279        C285   1.264       .  A
O279       Cd282   2.451       .  S
C280        O288   1.263       .  A
C280        C347   1.462       .  S
C281        O286   1.266       .  A
C281        O284   1.262       .  A
C281        C750   1.451   1_545  S
Cd282       O289   2.485       .  S
Cd282       O288   2.380       .  S
Cd282       O287   2.455       .  S
Cd282       O283   2.502       .  S
Cd282       O286   2.475       .  S
Cd282       O284   2.398       .  S
C285        O289   1.266       .  A
C285        C375   1.468       .  S
O290        C293   1.270       .  A
O290       Cd295   2.521       .  S
C291        O300   1.265       .  A
C291        O296   1.272       .  A
O292        C298   1.267       .  A
O292       Cd295   2.476       .  S
C293        O301   1.264       .  A
C293        C334   1.467       .  S
C294        O299   1.264       .  A
C294        O297   1.266       .  A
C294        C393   1.473       .  S
Cd295       O302   2.417       .  S
Cd295       O301   2.409       .  S
Cd295       O300   2.463       .  S
Cd295       O296   2.489       .  S
Cd295       O299   2.470       .  S
Cd295       O297   2.502       .  S
C298        O302   1.262       .  A
C298        C767   1.457       .  S
C303        C307   1.539       .  S
C303        C318   1.541       .  S
C303        C481   1.571       .  S
C303        C490   1.539       .  S
O304        C307   1.270       .  A
O304       Cd309   2.472       .  S
C305        O314   1.265       .  A
C305        O310   1.270       .  A
O306        C312   1.265       .  A
O306       Cd309   2.436       .  S
C307        O315   1.262       .  A
C308        O313   1.262       .  A
C308        O311   1.266       .  A
C308        C429   1.459       .  S
Cd309       O316   2.386       .  S
Cd309       O315   2.466       .  S
Cd309       O314   2.423       .  S
Cd309       O310   2.526       .  S
Cd309       O313   2.415       .  S
Cd309       O311   2.491       .  S
C312        O316   1.265       .  A
C312        C848   1.445       .  S
O317        C320   1.270       .  A
O317       Cd322   2.520       .  S
C318        O327   1.264       .  A
C318        O323   1.268       .  A
O319        C325   1.269       .  A
O319       Cd322   2.472       .  S
C320        O328   1.264       .  A
C321        O326   1.263       .  A
C321        O324   1.266       .  A
C321        C443   1.467       .  S
Cd322       O329   2.366       .  S
Cd322       O328   2.411       .  S
Cd322       O327   2.536       .  S
Cd322       O323   2.436       .  S
Cd322       O326   2.443       .  S
Cd322       O324   2.494       .  S
C325        O329   1.260       .  A
C325        C831   1.447       .  S
C330        C332   1.525       .  S
C330        C345   1.536       .  S
C330        C482   1.562       .  S
C330        C486   1.533       .  S
O331        C334   1.270       .  A
O331       Cd336   2.512       .  S
C332        O341   1.262       .  A
C332        O337   1.270       .  A
O333        C339   1.262       .  A
O333       Cd336   2.408       .  S
C334        O342   1.265       .  A
C335        O340   1.266       .  A
C335        O338   1.264       .  A
C335        C821   1.445   1_545  S
Cd336       O343   2.495       .  S
Cd336       O342   2.406       .  S
Cd336       O341   2.439       .  S
Cd336       O337   2.461       .  S
Cd336       O340   2.450       .  S
Cd336       O338   2.377       .  S
C339        O343   1.266       .  A
C339        C456   1.460       .  S
O344        C347   1.270       .  A
O344       Cd349   2.517       .  S
C345        O354   1.264       .  A
C345        O350   1.265       .  A
O346        C352   1.267       .  A
O346       Cd349   2.463       .  S
C347        O355   1.263       .  A
C348        O353   1.262       .  A
C348        O351   1.264       .  A
C348        C416   1.464       .  S
Cd349       O356   2.412       .  S
Cd349       O355   2.383       .  S
Cd349       O354   2.505       .  S
Cd349       O350   2.448       .  S
Cd349       O353   2.452       .  S
Cd349       O351   2.481       .  S
C352        O356   1.260       .  A
C352        C808   1.451   1_545  S
C357        C361   1.522       .  S
C357        C372   1.526       .  S
C357        C473   1.536       .  S
C357        C477   1.566       .  S
O358        C361   1.273       .  A
O358       Cd363   2.483       .  S
C359        O368   1.264       .  A
C359        O364   1.270       .  A
C359        C428   1.469       .  S
O360        C366   1.267       .  A
O360       Cd363   2.449       .  S
C361        O369   1.261       .  A
C362        O367   1.261       .  A
C362        O365   1.267       .  A
Cd363       O370   2.362       .  S
Cd363       O369   2.460       .  S
Cd363       O368   2.416       .  S
Cd363       O364   2.523       .  S
Cd363       O367   2.414       .  S
Cd363       O365   2.494       .  S
C366        O370   1.263       .  A
C366       C1398   1.442       .  S
O371        C374   1.270       .  A
O371       Cd376   2.547       .  S
C372        O381   1.268       .  A
C372        O377   1.265       .  A
O373        C379   1.266       .  A
O373       Cd376   2.457       .  S
C374        O382   1.262       .  A
C374        C413   1.471       .  S
C375        O380   1.263       .  A
C375        O378   1.267       .  A
Cd376       O383   2.418       .  S
Cd376       O382   2.403       .  S
Cd376       O381   2.525       .  S
Cd376       O377   2.440       .  S
Cd376       O380   2.449       .  S
Cd376       O378   2.494       .  S
C379        O383   1.263       .  A
C379       C1381   1.454       .  S
C384        C386   1.524       .  S
C384        C399   1.522       .  S
C384        C470   1.530       .  S
C384        C478   1.549       .  S
O385        C388   1.268       .  A
O385       Cd390   2.533       .  S
C386        O395   1.258       .  A
C386        O391   1.272       .  A
O387        C393   1.264       .  A
O387       Cd390   2.472       .  S
C388        O396   1.262       .  A
C388        C455   1.468       .  S
C389        O394   1.269       .  A
C389        O392   1.264       .  A
C389       C1371   1.452   1_455  S
Cd390       O397   2.505       .  S
Cd390       O396   2.417       .  S
Cd390       O395   2.484       .  S
Cd390       O391   2.486       .  S
Cd390       O394   2.454       .  S
Cd390       O392   2.402       .  S
C393        O397   1.266       .  A
O398        C401   1.270       .  A
O398       Cd403   2.499       .  S
C399        O408   1.263       .  A
C399        O404   1.270       .  A
O400        C406   1.266       .  A
O400       Cd403   2.454       .  S
C401        O409   1.263       .  A
C401        C440   1.460       .  S
C402        O407   1.263       .  A
C402        O405   1.266       .  A
Cd403       O410   2.391       .  S
Cd403       O409   2.394       .  S
Cd403       O408   2.456       .  S
Cd403       O404   2.486       .  S
Cd403       O407   2.425       .  S
Cd403       O405   2.481       .  S
C406        O410   1.261       .  A
C406       C1358   1.445   1_455  S
C411        C415   1.524       .  S
C411        C426   1.525       .  S
C411        C465   1.544       .  S
C411        C474   1.537       .  S
O412        C415   1.265       .  A
O412       Cd417   2.476       .  S
C413        O422   1.262       .  A
C413        O418   1.271       .  A
O414        C420   1.266       .  A
O414       Cd417   2.462       .  S
C415        O423   1.268       .  A
C416        O421   1.263       .  A
C416        O419   1.265       .  A
Cd417       O424   2.414       .  S
Cd417       O423   2.482       .  S
Cd417       O422   2.397       .  S
Cd417       O418   2.539       .  S
Cd417       O421   2.452       .  S
Cd417       O419   2.484       .  S
C420        O424   1.261       .  A
C420       C1452   1.451       .  S
O425        C428   1.269       .  A
O425       Cd430   2.517       .  S
C426        O435   1.262       .  A
C426        O431   1.271       .  A
O427        C433   1.266       .  A
O427       Cd430   2.448       .  S
C428        O436   1.264       .  A
C429        O434   1.261       .  A
C429        O432   1.266       .  A
Cd430       O437   2.408       .  S
Cd430       O436   2.420       .  S
Cd430       O435   2.442       .  S
Cd430       O431   2.489       .  S
Cd430       O434   2.416       .  S
Cd430       O432   2.489       .  S
C433        O437   1.264       .  A
C433       C1439   1.450       .  S
C438        C442   1.524       .  S
C438        C453   1.523       .  S
C438        C466   1.550       .  S
C438        C469   1.535       .  S
O439        C442   1.268       .  A
O439       Cd444   2.465       .  S
C440        O449   1.265       .  A
C440        O445   1.268       .  A
O441        C447   1.266       .  A
O441       Cd444   2.458       .  S
C442        O450   1.264       .  A
C443        O448   1.262       .  A
C443        O446   1.265       .  A
Cd444       O451   2.414       .  S
Cd444       O450   2.465       .  S
Cd444       O449   2.402       .  S
Cd444       O445   2.494       .  S
Cd444       O448   2.450       .  S
Cd444       O446   2.498       .  S
C447        O451   1.263       .  A
C447       C1425   1.451   1_455  S
O452        C455   1.270       .  A
O452       Cd457   2.530       .  S
C453        O462   1.265       .  A
C453        O458   1.270       .  A
O454        C460   1.264       .  A
O454       Cd457   2.460       .  S
C455        O463   1.262       .  A
C456        O461   1.264       .  A
C456        O459   1.269       .  A
Cd457       O464   2.401       .  S
Cd457       O463   2.401       .  S
Cd457       O462   2.446       .  S
Cd457       O458   2.472       .  S
Cd457       O461   2.404       .  S
Cd457       O459   2.481       .  S
C460        O464   1.262       .  A
C460       C1412   1.449   1_455  S
C465        H467   1.084       .  S
C465       C1458   1.351       .  D
C466        H468   1.085       .  S
C466       C1457   1.365   1_455  D
C469        H471   1.089       .  S
C470        H472   1.090       .  S
C473        H475   1.083       .  S
C474        H476   1.082       .  S
C477        H479   1.087       .  S
C477       C1470   1.366       .  D
C478        H480   1.077       .  S
C478       C1469   1.367   1_455  D
C481        H483   1.085       .  S
C481        C978   1.369       .  D
C482        H484   1.082       .  S
C482        C977   1.368       .  D
C485        H487   1.088       .  S
C486        H488   1.085       .  S
C489        H491   1.081       .  S
C490        H492   1.084       .  S
C493        H495   1.088       .  S
C493        C990   1.353       .  D
C494        H496   1.088       .  S
C494        C989   1.353       .  D
C497        C501   1.529       .  S
C497        C514   1.517       .  S
C497        C737   1.534       .  S
C497        C741   1.543   1_565  S
O498        C501   1.272       .  A
O498       Cd503   2.488       .  S
C499        O508   1.264       .  A
C499        O504   1.271       .  A
C499        C553   1.474       .  S
O500        C506   1.262       .  A
O500       Cd503   2.430       .  S
C501        O509   1.263       .  A
C502        O507   1.267       .  A
C502        O505   1.262       .  A
Cd503       O510   2.490       .  S
Cd503       O509   2.451       .  S
Cd503       O508   2.431       .  S
Cd503       O504   2.533       .  S
Cd503       O507   2.481       .  S
Cd503       O505   2.395       .  S
C506        O510   1.267       .  A
C506        C610   1.465       .  S
O511        C514   1.266       .  A
O511       Cd516   2.472       .  S
C512        O521   1.264       .  A
C512        O517   1.269       .  A
C512        C568   1.465       .  S
O513        C519   1.263   1_565  A
O513       Cd516   2.459       .  S
C514        O522   1.267       .  A
C515        O520   1.263       .  A
C515        O518   1.268       .  A
C515        C650   1.459       .  S
Cd516       O523   2.403       .  S
Cd516       O522   2.430       .  S
Cd516       O521   2.401       .  S
Cd516       O517   2.509       .  S
Cd516       O520   2.406       .  S
Cd516       O518   2.478       .  S
C519        O523   1.262   1_545  A
C524        C526   1.521       .  S
C524        C539   1.531       .  S
C524        C733   1.532       .  S
C524        C742   1.544       .  S
O525        C528   1.270       .  A
O525       Cd530   2.509       .  S
C526        O535   1.267       .  A
C526        O531   1.266       .  A
O527        C533   1.263       .  A
O527       Cd530   2.438       .  S
C528        O536   1.264       .  A
C528        C595   1.465       .  S
C529        O534   1.263       .  A
C529        O532   1.262       .  A
Cd530       O537   2.485       .  S
Cd530       O536   2.402       .  S
Cd530       O535   2.448       .  S
Cd530       O531   2.488       .  S
Cd530       O534   2.457       .  S
Cd530       O532   2.410       .  S
C533        O537   1.267       .  A
C533        C623   1.465       .  S
O538        C541   1.270       .  A
O538       Cd543   2.517       .  S
C539        O548   1.264       .  A
C539        O544   1.272       .  A
O540        C546   1.268       .  A
O540       Cd543   2.482       .  S
C541        O549   1.265       .  A
C541        C582   1.468       .  S
C542        O547   1.263       .  A
C542        O545   1.266       .  A
C542        C641   1.468       .  S
Cd543       O550   2.390       .  S
Cd543       O549   2.423       .  S
Cd543       O548   2.468       .  S
Cd543       O544   2.487       .  S
Cd543       O547   2.452       .  S
Cd543       O545   2.492       .  S
C546        O550   1.261       .  A
C551        C555   1.539       .  S
C551        C566   1.541       .  S
C551        C729   1.573   1_565  S
C551        C738   1.540       .  S
O552        C555   1.271       .  A
O552       Cd557   2.485       .  S
C553        O562   1.265       .  A
C553        O558   1.271       .  A
O554        C560   1.266       .  A
O554       Cd557   2.444       .  S
C555        O563   1.262       .  A
C556        O561   1.263       .  A
C556        O559   1.267       .  A
C556        C677   1.470       .  S
Cd557       O564   2.392       .  S
Cd557       O563   2.465       .  S
Cd557       O562   2.429       .  S
Cd557       O558   2.525       .  S
Cd557       O561   2.437       .  S
Cd557       O559   2.514       .  S
C560        O564   1.264       .  A
O565        C568   1.270       .  A
O565       Cd570   2.523       .  S
C566        O575   1.263       .  A
C566        O571   1.269       .  A
O567        C573   1.269       .  A
O567       Cd570   2.459       .  S
C568        O576   1.263       .  A
C569        O574   1.263       .  A
C569        O572   1.265       .  A
C569        C691   1.465       .  S
Cd570       O577   2.382       .  S
Cd570       O576   2.405       .  S
Cd570       O575   2.519       .  S
Cd570       O571   2.459       .  S
Cd570       O574   2.453       .  S
Cd570       O572   2.479       .  S
C573        O577   1.260       .  A
C578        C580   1.529       .  S
C578        C593   1.538       .  S
C578        C730   1.564       .  S
C578        C734   1.535       .  S
O579        C582   1.270       .  A
O579       Cd584   2.509       .  S
C580        O589   1.263       .  A
C580        O585   1.270       .  A
O581        C587   1.262       .  A
O581       Cd584   2.393       .  S
C582        O590   1.265       .  A
C583        O588   1.265       .  A
C583        O586   1.264       .  A
Cd584       O591   2.489       .  S
Cd584       O590   2.416       .  S
Cd584       O589   2.441       .  S
Cd584       O585   2.474       .  S
Cd584       O588   2.453       .  S
Cd584       O586   2.376       .  S
C587        O591   1.267       .  A
C587        C704   1.456       .  S
O592        C595   1.269       .  A
O592       Cd597   2.517       .  S
C593        O602   1.265       .  A
C593        O598   1.266       .  A
O594        C600   1.266       .  A
O594       Cd597   2.465       .  S
C595        O603   1.264       .  A
C596        O601   1.262       .  A
C596        O599   1.265       .  A
C596        C664   1.464       .  S
Cd597       O604   2.413       .  S
Cd597       O603   2.410       .  S
Cd597       O602   2.516       .  S
Cd597       O598   2.451       .  S
Cd597       O601   2.445       .  S
Cd597       O599   2.486       .  S
C600        O604   1.259       .  A
C605        C609   1.532       .  S
C605        C620   1.537       .  S
C605        C721   1.538       .  S
C605        C725   1.565       .  S
O606        C609   1.270       .  A
O606       Cd611   2.487       .  S
C607        O616   1.265       .  A
C607        O612   1.269       .  A
C607        C676   1.468       .  S
O608        C614   1.267       .  A
O608       Cd611   2.450       .  S
C609        O617   1.263       .  A
C610        O615   1.262       .  A
C610        O613   1.265       .  A
Cd611       O618   2.389       .  S
Cd611       O617   2.476       .  S
Cd611       O616   2.417       .  S
Cd611       O612   2.518       .  S
Cd611       O615   2.447       .  S
Cd611       O613   2.496       .  S
C614        O618   1.263       .  A
C614       C1646   1.446       .  S
O619        C622   1.268       .  A
O619       Cd624   2.512       .  S
C620        O629   1.262       .  A
C620        O625   1.269       .  A
O621        C627   1.266       .  A
O621       Cd624   2.458       .  S
C622        O630   1.264       .  A
C622        C661   1.467       .  S
C623        O628   1.262       .  A
C623        O626   1.265       .  A
Cd624       O631   2.406       .  S
Cd624       O630   2.426       .  S
Cd624       O629   2.485       .  S
Cd624       O625   2.496       .  S
Cd624       O628   2.445       .  S
Cd624       O626   2.490       .  S
C627        O631   1.264       .  A
C627       C1629   1.451       .  S
C632        C634   1.522       .  S
C632        C647   1.520       .  S
C632        C718   1.525       .  S
C632        C726   1.559       .  S
O633        C636   1.268       .  A
O633       Cd638   2.539       .  S
C634        O643   1.257       .  A
C634        O639   1.272       .  A
O635        C641   1.264       .  A
O635       Cd638   2.455       .  S
C636        O644   1.261       .  A
C636        C703   1.466       .  S
C637        O642   1.269       .  A
C637        O640   1.265       .  A
C637       C1619   1.452   1_455  S
Cd638       O645   2.489       .  S
Cd638       O644   2.399       .  S
Cd638       O643   2.479       .  S
Cd638       O639   2.489       .  S
Cd638       O642   2.449       .  S
Cd638       O640   2.402       .  S
C641        O645   1.265       .  A
O646        C649   1.271       .  A
O646       Cd651   2.518       .  S
C647        O656   1.265       .  A
C647        O652   1.269       .  A
O648        C654   1.267       .  A
O648       Cd651   2.474       .  S
C649        O657   1.264       .  A
C649        C688   1.468       .  S
C650        O655   1.263       .  A
C650        O653   1.266       .  A
Cd651       O658   2.381       .  S
Cd651       O657   2.404       .  S
Cd651       O656   2.481       .  S
Cd651       O652   2.470       .  S
Cd651       O655   2.419       .  S
Cd651       O653   2.486       .  S
C654        O658   1.260       .  A
C654       C1606   1.447   1_455  S
C659        C663   1.533       .  S
C659        C674   1.547       .  S
C659        C713   1.560       .  S
C659        C722   1.534       .  S
O660        C663   1.269       .  A
O660       Cd665   2.478       .  S
C661        O670   1.263       .  A
C661        O666   1.269       .  A
O662        C668   1.268       .  A
O662       Cd665   2.453       .  S
C663        O671   1.263       .  A
C664        O669   1.262       .  A
C664        O667   1.264       .  A
Cd665       O672   2.383       .  S
Cd665       O671   2.491       .  S
Cd665       O670   2.426       .  S
Cd665       O666   2.516       .  S
Cd665       O669   2.451       .  S
Cd665       O667   2.488       .  S
C668        O672   1.262       .  A
C668       C1700   1.446       .  S
O673        C676   1.271       .  A
O673       Cd678   2.530       .  S
C674        O683   1.264       .  A
C674        O679   1.272       .  A
O675        C681   1.268       .  A
O675       Cd678   2.459       .  S
C676        O684   1.263       .  A
C677        O682   1.263       .  A
C677        O680   1.267       .  A
Cd678       O685   2.400       .  S
Cd678       O684   2.410       .  S
Cd678       O683   2.489       .  S
Cd678       O679   2.499       .  S
Cd678       O682   2.440       .  S
Cd678       O680   2.512       .  S
C681        O685   1.263       .  A
C681       C1687   1.451       .  S
C686        C690   1.530       .  S
C686        C701   1.519       .  S
C686        C714   1.552       .  S
C686        C717   1.535       .  S
O687        C690   1.270       .  A
O687       Cd692   2.454       .  S
C688        O697   1.265       .  A
C688        O693   1.269       .  A
O689        C695   1.266       .  A
O689       Cd692   2.445       .  S
C690        O698   1.263       .  A
C691        O696   1.263       .  A
C691        O694   1.265       .  A
Cd692       O699   2.393       .  S
Cd692       O698   2.492       .  S
Cd692       O697   2.422       .  S
Cd692       O693   2.523       .  S
Cd692       O696   2.455       .  S
Cd692       O694   2.486       .  S
C695        O699   1.263       .  A
C695       C1673   1.445   1_455  S
O700        C703   1.272       .  A
O700       Cd705   2.530       .  S
C701        O710   1.265       .  A
C701        O706   1.269       .  A
O702        C708   1.264       .  A
O702       Cd705   2.452       .  S
C703        O711   1.262       .  A
C704        O709   1.264       .  A
C704        O707   1.269       .  A
Cd705       O712   2.389       .  S
Cd705       O711   2.379       .  S
Cd705       O710   2.432       .  S
Cd705       O706   2.462       .  S
Cd705       O709   2.385       .  S
Cd705       O707   2.472       .  S
C708        O712   1.261       .  A
C708       C1660   1.446   1_455  S
C713        H715   1.086       .  S
C713       C1706   1.366       .  D
C714        H716   1.085       .  S
C714       C1705   1.365   1_455  D
C717        H719   1.089       .  S
C717        C966   1.349       .  D
C718        H720   1.084   1_554  S
C718        C965   1.354   1_554  D
C721        H723   1.084       .  S
C721        C970   1.348   1_554  D
C722        H724   1.084       .  S
C722        C969   1.347       .  D
C725        H727   1.087       .  S
C725       C1718   1.366       .  D
C726        H728   1.082       .  S
C726       C1717   1.360   1_455  D
C729        H731   1.085       .  S
C730        H732   1.083       .  S
C733        H735   1.088       .  S
C733        C982   1.341   1_554  D
C734        H736   1.085       .  S
C734        C981   1.341       .  D
C737        H739   1.081       .  S
C737        C986   1.344   1_554  D
C738        H740   1.085       .  S
C738        C985   1.345       .  D
C741        H743   1.087       .  S
C742        H744   1.087       .  S
C745        C749   1.530       .  S
C745        C762   1.520       .  S
C745        C985   1.537       .  S
C745        C989   1.545   1_565  S
O746        C749   1.272       .  A
O746       Cd751   2.497       .  S
C747        O756   1.263       .  A
C747        O752   1.272       .  A
C747        C801   1.472       .  S
O748        C754   1.262       .  A
O748       Cd751   2.424       .  S
C749        O757   1.263       .  A
C750        O755   1.267       .  A
C750        O753   1.261       .  A
Cd751       O758   2.486       .  S
Cd751       O757   2.459       .  S
Cd751       O756   2.420       .  S
Cd751       O752   2.535       .  S
Cd751       O755   2.477       .  S
Cd751       O753   2.391       .  S
C754        O758   1.266       .  A
C754        C858   1.461       .  S
O759        C762   1.266       .  A
O759       Cd764   2.476       .  S
C760        O769   1.266       .  A
C760        O765   1.269       .  A
C760        C816   1.465       .  S
O761        C767   1.264   1_565  A
O761       Cd764   2.474       .  S
C762        O770   1.268       .  A
C763        O768   1.264       .  A
C763        O766   1.266       .  A
C763        C898   1.459       .  S
Cd764       O771   2.422       .  S
Cd764       O770   2.437       .  S
Cd764       O769   2.418       .  S
Cd764       O765   2.491       .  S
Cd764       O768   2.428       .  S
Cd764       O766   2.475       .  S
C767        O771   1.263   1_545  A
C772        C774   1.526       .  S
C772        C787   1.534       .  S
C772        C981   1.533       .  S
C772        C990   1.545       .  S
O773        C776   1.269       .  A
O773       Cd778   2.511       .  S
C774        O783   1.269       .  A
C774        O779   1.265       .  A
O775        C781   1.264       .  A
O775       Cd778   2.457       .  S
C776        O784   1.264       .  A
C776        C843   1.466       .  S
C777        O782   1.264       .  A
C777        O780   1.262       .  A
Cd778       O785   2.505       .  S
Cd778       O784   2.409       .  S
Cd778       O783   2.456       .  S
Cd778       O779   2.506       .  S
Cd778       O782   2.470       .  S
Cd778       O780   2.421       .  S
C781        O785   1.267       .  A
C781        C871   1.470       .  S
O786        C789   1.270       .  A
O786       Cd791   2.516       .  S
C787        O796   1.265       .  A
C787        O792   1.271       .  A
O788        C794   1.267       .  A
O788       Cd791   2.464       .  S
C789        O797   1.264       .  A
C789        C830   1.466       .  S
C790        O795   1.263       .  A
C790        O793   1.266       .  A
C790        C889   1.473       .  S
Cd791       O798   2.421       .  S
Cd791       O797   2.415       .  S
Cd791       O796   2.478       .  S
Cd791       O792   2.508       .  S
Cd791       O795   2.478       .  S
Cd791       O793   2.496       .  S
C794        O798   1.261       .  A
C799        C803   1.537       .  S
C799        C814   1.538       .  S
C799        C977   1.569   1_565  S
C799        C986   1.539       .  S
O800        C803   1.271       .  A
O800       Cd805   2.499       .  S
C801        O810   1.265       .  A
C801        O806   1.269       .  A
O802        C808   1.265       .  A
O802       Cd805   2.437       .  S
C803        O811   1.262       .  A
C804        O809   1.262       .  A
C804        O807   1.266       .  A
C804        C925   1.465       .  S
Cd805       O812   2.414       .  S
Cd805       O811   2.449       .  S
Cd805       O810   2.427       .  S
Cd805       O806   2.522       .  S
Cd805       O809   2.436       .  S
Cd805       O807   2.502       .  S
C808        O812   1.266       .  A
O813        C816   1.269       .  A
O813       Cd818   2.507       .  S
C814        O823   1.264       .  A
C814        O819   1.269       .  A
O815        C821   1.269       .  A
O815       Cd818   2.469       .  S
C816        O824   1.264       .  A
C817        O822   1.264       .  A
C817        O820   1.266       .  A
C817        C939   1.463       .  S
Cd818       O825   2.371       .  S
Cd818       O824   2.426       .  S
Cd818       O823   2.506       .  S
Cd818       O819   2.460       .  S
Cd818       O822   2.443       .  S
Cd818       O820   2.476       .  S
C821        O825   1.260       .  A
C826        C828   1.527       .  S
C826        C841   1.537       .  S
C826        C978   1.566       .  S
C826        C982   1.533       .  S
O827        C830   1.270       .  A
O827       Cd832   2.504       .  S
C828        O837   1.263       .  A
C828        O833   1.270       .  A
O829        C835   1.263       .  A
O829       Cd832   2.421       .  S
C830        O838   1.265       .  A
C831        O836   1.266       .  A
C831        O834   1.264       .  A
Cd832       O839   2.472       .  S
Cd832       O838   2.407       .  S
Cd832       O837   2.429       .  S
Cd832       O833   2.477       .  S
Cd832       O836   2.459       .  S
Cd832       O834   2.375       .  S
C835        O839   1.265       .  A
C835        C952   1.458       .  S
O840        C843   1.269       .  A
O840       Cd845   2.519       .  S
C841        O850   1.265       .  A
C841        O846   1.267       .  A
O842        C848   1.267       .  A
O842       Cd845   2.459       .  S
C843        O851   1.263       .  A
C844        O849   1.262       .  A
C844        O847   1.265       .  A
C844        C912   1.462       .  S
Cd845       O852   2.391       .  S
Cd845       O851   2.413       .  S
Cd845       O850   2.511       .  S
Cd845       O846   2.452       .  S
Cd845       O849   2.443       .  S
Cd845       O847   2.476       .  S
C848        O852   1.259       .  A
C853        C857   1.530       .  S
C853        C868   1.537       .  S
C853        C969   1.537       .  S
C853        C973   1.567       .  S
O854        C857   1.270       .  A
O854       Cd859   2.463       .  S
C855        O864   1.265       .  A
C855        O860   1.270       .  A
C855        C924   1.471       .  S
O856        C862   1.265       .  A
O856       Cd859   2.437       .  S
C857        O865   1.262       .  A
C858        O863   1.262       .  A
C858        O861   1.266       .  A
Cd859       O866   2.389       .  S
Cd859       O865   2.472       .  S
Cd859       O864   2.424       .  S
Cd859       O860   2.525       .  S
Cd859       O863   2.424       .  S
Cd859       O861   2.489       .  S
C862        O866   1.263       .  A
C862       C1894   1.444       .  S
O867        C870   1.268       .  A
O867       Cd872   2.520       .  S
C868        O877   1.262       .  A
C868        O873   1.269       .  A
O869        C875   1.266       .  A
O869       Cd872   2.454       .  S
C870        O878   1.263       .  A
C870        C909   1.467       .  S
C871        O876   1.263       .  A
C871        O874   1.266       .  A
Cd872       O879   2.406       .  S
Cd872       O878   2.419       .  S
Cd872       O877   2.490       .  S
Cd872       O873   2.475       .  S
Cd872       O876   2.448       .  S
Cd872       O874   2.500       .  S
C875        O879   1.265       .  A
C875       C1877   1.451       .  S
C880        C882   1.525       .  S
C880        C895   1.520       .  S
C880        C966   1.531       .  S
C880        C974   1.549       .  S
O881        C884   1.268       .  A
O881       Cd886   2.520       .  S
C882        O891   1.257       .  A
C882        O887   1.271       .  A
O883        C889   1.266       .  A
O883       Cd886   2.483       .  S
C884        O892   1.261       .  A
C884        C951   1.462       .  S
C885        O890   1.271       .  A
C885        O888   1.265       .  A
C885       C1867   1.453   1_455  S
Cd886       O893   2.485       .  S
Cd886       O892   2.397       .  S
Cd886       O891   2.486       .  S
Cd886       O887   2.496       .  S
Cd886       O890   2.457       .  S
Cd886       O888   2.397       .  S
C889        O893   1.264       .  A
O894        C897   1.271       .  A
O894       Cd899   2.491       .  S
C895        O904   1.261       .  A
C895        O900   1.271       .  A
O896        C902   1.265       .  A
O896       Cd899   2.439       .  S
C897        O905   1.264       .  A
C897        C936   1.460       .  S
C898        O903   1.261       .  A
C898        O901   1.266       .  A
Cd899       O906   2.380       .  S
Cd899       O905   2.400       .  S
Cd899       O904   2.436       .  S
Cd899       O900   2.503       .  S
Cd899       O903   2.414       .  S
Cd899       O901   2.478       .  S
C902        O906   1.262       .  A
C902       C1854   1.441   1_455  S
C907        C911   1.533       .  S
C907        C922   1.543       .  S
C907        C961   1.562       .  S
C907        C970   1.534       .  S
O908        C911   1.271       .  A
O908       Cd913   2.479       .  S
C909        O918   1.263       .  A
C909        O914   1.269       .  A
O910        C916   1.267       .  A
O910       Cd913   2.444       .  S
C911        O919   1.262       .  A
C912        O917   1.263       .  A
C912        O915   1.264       .  A
Cd913       O920   2.395       .  S
Cd913       O919   2.485       .  S
Cd913       O918   2.418       .  S
Cd913       O914   2.519       .  S
Cd913       O917   2.449       .  S
Cd913       O915   2.478       .  S
C916        O920   1.262       .  A
C916       C1948   1.447       .  S
O921        C924   1.270       .  A
O921       Cd926   2.533       .  S
C922        O931   1.263       .  A
C922        O927   1.272       .  A
O923        C929   1.266       .  A
O923       Cd926   2.449       .  S
C924        O932   1.263       .  A
C925        O930   1.261       .  A
C925        O928   1.267       .  A
Cd926       O933   2.398       .  S
Cd926       O932   2.422       .  S
Cd926       O931   2.472       .  S
Cd926       O927   2.492       .  S
Cd926       O930   2.429       .  S
Cd926       O928   2.503       .  S
C929        O933   1.263       .  A
C929       C1935   1.448       .  S
C934        C938   1.530       .  S
C934        C949   1.513       .  S
C934        C962   1.550       .  S
C934        C965   1.526       .  S
O935        C938   1.269       .  A
O935       Cd940   2.463       .  S
C936        O945   1.265       .  A
C936        O941   1.267       .  A
O937        C943   1.268       .  A
O937       Cd940   2.448       .  S
C938        O946   1.263       .  A
C939        O944   1.262       .  A
C939        O942   1.264       .  A
Cd940       O947   2.400       .  S
Cd940       O946   2.473       .  S
Cd940       O945   2.415       .  S
Cd940       O941   2.485       .  S
Cd940       O944   2.450       .  S
Cd940       O942   2.485       .  S
C943        O947   1.264       .  A
C943       C1921   1.451   1_455  S
O948        C951   1.271       .  A
O948       Cd953   2.514       .  S
C949        O958   1.265       .  A
C949        O954   1.268       .  A
O950        C956   1.264       .  A
O950       Cd953   2.460       .  S
C951        O959   1.263       .  A
C952        O957   1.264       .  A
C952        O955   1.268       .  A
Cd953       O960   2.402       .  S
Cd953       O959   2.384       .  S
Cd953       O958   2.431       .  S
Cd953       O954   2.470       .  S
Cd953       O957   2.407       .  S
Cd953       O955   2.467       .  S
C956        O960   1.261       .  A
C956       C1908   1.449   1_455  S
C961        H963   1.086       .  S
C961       C1954   1.364       .  D
C962        H964   1.088       .  S
C962       C1953   1.353   1_455  D
C965        H967   1.089       .  S
C966        H968   1.090       .  S
C969        H971   1.084       .  S
C970        H972   1.084   1_556  S
C973        H975   1.087       .  S
C973       C1966   1.368       .  D
C974        H976   1.078       .  S
C974       C1965   1.365   1_455  D
C977        H979   1.086       .  S
C978        H980   1.082       .  S
C981        H983   1.087       .  S
C982        H984   1.085       .  S
C985        H987   1.081       .  S
C986        H988   1.084       .  S
C989        H991   1.087       .  S
C990        H992   1.087       .  S
C993        C997   1.529       .  S
C993       C1010   1.521       .  S
C993       C1233   1.528       .  S
C993       C1237   1.545       .  S
O994        C997   1.273       .  A
O994       Cd999   2.482       .  S
C995       O1004   1.264       .  A
C995       O1000   1.272       .  A
C995       C1049   1.468       .  S
O996       C1002   1.263       .  A
O996       Cd999   2.415       .  S
C997       O1005   1.264       .  A
C998       O1003   1.268       .  A
C998       O1001   1.261       .  A
C998       C1521   1.450       .  S
Cd999      O1006   2.486       .  S
Cd999      O1005   2.453       .  S
Cd999      O1004   2.414       .  S
Cd999      O1000   2.512       .  S
Cd999      O1003   2.476       .  S
Cd999      O1001   2.381       .  S
C1002      O1006   1.268       .  A
C1002      C1106   1.463       .  S
O1007      C1010   1.264       .  A
O1007     Cd1012   2.482       .  S
C1008      O1017   1.266       .  A
C1008      O1013   1.269       .  A
C1008      C1064   1.468       .  S
O1009      C1015   1.264       .  A
O1009     Cd1012   2.475       .  S
C1010      O1018   1.269       .  A
C1011      O1016   1.264       .  A
C1011      O1014   1.267       .  A
C1011      C1146   1.466       .  S
Cd1012     O1019   2.424       .  S
Cd1012     O1018   2.437       .  S
Cd1012     O1017   2.418       .  S
Cd1012     O1013   2.500       .  S
Cd1012     O1016   2.448       .  S
Cd1012     O1014   2.498       .  S
C1015      O1019   1.263       .  A
C1015      C1538   1.458       .  S
C1020      C1022   1.521       .  S
C1020      C1035   1.529       .  S
C1020      C1229   1.529       .  S
C1020      C1238   1.544       .  S
O1021      C1024   1.270       .  A
O1021     Cd1026   2.503       .  S
C1022      O1031   1.268       .  A
C1022      O1027   1.265       .  A
O1023      C1029   1.265       .  A
O1023     Cd1026   2.449       .  S
C1024      O1032   1.265       .  A
C1024      C1091   1.464       .  S
C1025      O1030   1.265       .  A
C1025      O1028   1.262       .  A
C1025      C1494   1.453   1_545  S
Cd1026     O1033   2.469       .  S
Cd1026     O1032   2.396       .  S
Cd1026     O1031   2.441       .  S
Cd1026     O1027   2.491       .  S
Cd1026     O1030   2.476       .  S
Cd1026     O1028   2.407       .  S
C1029      O1033   1.266       .  A
C1029      C1119   1.465       .  S
O1034      C1037   1.269       .  A
O1034     Cd1039   2.504       .  S
C1035      O1044   1.265       .  A
C1035      O1040   1.272       .  A
O1036      C1042   1.267       .  A
O1036     Cd1039   2.460       .  S
C1037      O1045   1.264       .  A
C1037      C1078   1.463       .  S
C1038      O1043   1.263       .  A
C1038      O1041   1.266       .  A
C1038      C1137   1.460       .  S
Cd1039     O1046   2.407       .  S
Cd1039     O1045   2.410       .  S
Cd1039     O1044   2.454       .  S
Cd1039     O1040   2.482       .  S
Cd1039     O1043   2.429       .  S
Cd1039     O1041   2.476       .  S
C1042      O1046   1.262       .  A
C1042      C1511   1.452   1_545  S
C1047      C1051   1.536       .  S
C1047      C1062   1.546       .  S
C1047      C1225   1.571       .  S
C1047      C1234   1.544       .  S
O1048      C1051   1.270       .  A
O1048     Cd1053   2.467       .  S
C1049      O1058   1.266       .  A
C1049      O1054   1.269       .  A
O1050      C1056   1.266       .  A
O1050     Cd1053   2.443       .  S
C1051      O1059   1.262       .  A
C1052      O1057   1.262       .  A
C1052      O1055   1.266       .  A
C1052      C1173   1.463       .  S
Cd1053     O1060   2.399       .  S
Cd1053     O1059   2.455       .  S
Cd1053     O1058   2.427       .  S
Cd1053     O1054   2.505       .  S
Cd1053     O1057   2.421       .  S
Cd1053     O1055   2.498       .  S
C1056      O1060   1.265       .  A
C1056      C1592   1.449       .  S
O1061      C1064   1.271       .  A
O1061     Cd1066   2.526       .  S
C1062      O1071   1.264       .  A
C1062      O1067   1.270       .  A
O1063      C1069   1.268       .  A
O1063     Cd1066   2.461       .  S
C1064      O1072   1.263       .  A
C1065      O1070   1.263       .  A
C1065      O1068   1.267       .  A
C1065      C1187   1.468       .  S
Cd1066     O1073   2.377       .  S
Cd1066     O1072   2.423       .  S
Cd1066     O1071   2.541       .  S
Cd1066     O1067   2.465       .  S
Cd1066     O1070   2.442       .  S
Cd1066     O1068   2.489       .  S
C1069      O1073   1.259       .  A
C1069      C1575   1.444       .  S
C1074      C1076   1.526       .  S
C1074      C1089   1.539       .  S
C1074      C1226   1.563       .  S
C1074      C1230   1.538       .  S
O1075      C1078   1.270       .  A
O1075     Cd1080   2.498       .  S
C1076      O1085   1.263       .  A
C1076      O1081   1.269       .  A
O1077      C1083   1.262       .  A
O1077     Cd1080   2.396       .  S
C1078      O1086   1.265       .  A
C1079      O1084   1.264       .  A
C1079      O1082   1.264       .  A
C1079      C1565   1.447   1_545  S
Cd1080     O1087   2.484       .  S
Cd1080     O1086   2.406       .  S
Cd1080     O1085   2.426       .  S
Cd1080     O1081   2.471       .  S
Cd1080     O1084   2.445       .  S
Cd1080     O1082   2.400       .  S
C1083      O1087   1.266       .  A
C1083      C1200   1.455       .  S
O1088      C1091   1.270       .  A
O1088     Cd1093   2.521       .  S
C1089      O1098   1.265       .  A
C1089      O1094   1.266       .  A
O1090      C1096   1.268       .  A
O1090     Cd1093   2.462       .  S
C1091      O1099   1.263       .  A
C1092      O1097   1.262       .  A
C1092      O1095   1.266       .  A
C1092      C1160   1.465       .  S
Cd1093     O1100   2.391       .  S
Cd1093     O1099   2.403       .  S
Cd1093     O1098   2.519       .  S
Cd1093     O1094   2.457       .  S
Cd1093     O1097   2.446       .  S
Cd1093     O1095   2.484       .  S
C1096      O1100   1.260       .  A
C1096      C1552   1.447   1_545  S
C1101      C1105   1.531       .  S
C1101      C1116   1.536       .  S
C1101      C1217   1.537       .  S
C1101      C1221   1.568       .  S
O1102      C1105   1.271       .  A
O1102     Cd1107   2.486       .  S
C1103      O1112   1.265       .  A
C1103      O1108   1.270       .  A
C1103      C1172   1.471       .  S
O1104      C1110   1.266       .  A
O1104     Cd1107   2.444       .  S
C1105      O1113   1.261       .  A
C1106      O1111   1.262       .  A
C1106      O1109   1.265       .  A
Cd1107     O1114   2.395       .  S
Cd1107     O1113   2.472       .  S
Cd1107     O1112   2.433       .  S
Cd1107     O1108   2.515       .  S
Cd1107     O1111   2.431       .  S
Cd1107     O1109   2.497       .  S
C1110      O1114   1.263       .  A
O1115      C1118   1.268       .  A
O1115     Cd1120   2.530       .  S
C1116      O1125   1.261       .  A
C1116      O1121   1.270       .  A
O1117      C1123   1.267       .  A
O1117     Cd1120   2.454       .  S
C1118      O1126   1.264       .  A
C1118      C1157   1.471       .  S
C1119      O1124   1.262       .  A
C1119      O1122   1.265       .  A
Cd1120     O1127   2.397       .  S
Cd1120     O1126   2.432       .  S
Cd1120     O1125   2.482       .  S
Cd1120     O1121   2.495       .  S
Cd1120     O1124   2.457       .  S
Cd1120     O1122   2.489       .  S
C1123      O1127   1.265       .  A
C1128      C1130   1.514       .  S
C1128      C1143   1.525       .  S
C1128      C1214   1.532       .  S
C1128      C1222   1.557       .  S
O1129      C1132   1.270       .  A
O1129     Cd1134   2.531       .  S
C1130      O1139   1.263       .  A
C1130      O1135   1.269       .  A
O1131      C1137   1.264       .  A
O1131     Cd1134   2.419       .  S
C1132      O1140   1.262       .  A
C1132      C1199   1.466       .  S
C1133      O1138   1.266       .  A
C1133      O1136   1.262       .  A
Cd1134     O1141   2.472       .  S
Cd1134     O1140   2.396       .  S
Cd1134     O1139   2.416       .  S
Cd1134     O1135   2.469       .  S
Cd1134     O1138   2.464       .  S
Cd1134     O1136   2.397       .  S
C1137      O1141   1.267       .  A
O1142      C1145   1.270       .  A
O1142     Cd1147   2.497       .  S
C1143      O1152   1.263       .  A
C1143      O1148   1.271       .  A
O1144      C1150   1.267       .  A
O1144     Cd1147   2.461       .  S
C1145      O1153   1.264       .  A
C1145      C1184   1.461       .  S
C1146      O1151   1.264       .  A
C1146      O1149   1.266       .  A
Cd1147     O1154   2.385       .  S
Cd1147     O1153   2.404       .  S
Cd1147     O1152   2.477       .  S
Cd1147     O1148   2.458       .  S
Cd1147     O1151   2.434       .  S
Cd1147     O1149   2.484       .  S
C1150      O1154   1.261       .  A
C1155      C1159   1.536       .  S
C1155      C1170   1.546       .  S
C1155      C1209   1.562       .  S
C1155      C1218   1.533       .  S
O1156      C1159   1.270       .  A
O1156     Cd1161   2.483       .  S
C1157      O1166   1.263       .  A
C1157      O1162   1.270       .  A
O1158      C1164   1.267       .  A
O1158     Cd1161   2.453       .  S
C1159      O1167   1.262       .  A
C1160      O1165   1.263       .  A
C1160      O1163   1.264       .  A
Cd1161     O1168   2.379       .  S
Cd1161     O1167   2.503       .  S
Cd1161     O1166   2.425       .  S
Cd1161     O1162   2.529       .  S
Cd1161     O1165   2.456       .  S
Cd1161     O1163   2.482       .  S
C1164      O1168   1.263       .  A
O1169      C1172   1.270       .  A
O1169     Cd1174   2.523       .  S
C1170      O1179   1.262       .  A
C1170      O1175   1.272       .  A
O1171      C1177   1.267       .  A
O1171     Cd1174   2.440       .  S
C1172      O1180   1.264       .  A
C1173      O1178   1.261       .  A
C1173      O1176   1.267       .  A
Cd1174     O1181   2.397       .  S
Cd1174     O1180   2.434       .  S
Cd1174     O1179   2.482       .  S
Cd1174     O1175   2.501       .  S
Cd1174     O1178   2.425       .  S
Cd1174     O1176   2.503       .  S
C1177      O1181   1.264       .  A
C1182      C1186   1.537       .  S
C1182      C1197   1.530       .  S
C1182      C1210   1.550       .  S
C1182      C1213   1.536       .  S
O1183      C1186   1.267       .  A
O1183     Cd1188   2.469       .  S
C1184      O1193   1.265       .  A
C1184      O1189   1.267       .  A
O1185      C1191   1.266       .  A
O1185     Cd1188   2.460       .  S
C1186      O1194   1.265       .  A
C1187      O1192   1.263       .  A
C1187      O1190   1.265       .  A
Cd1188     O1195   2.412       .  S
Cd1188     O1194   2.490       .  S
Cd1188     O1193   2.416       .  S
Cd1188     O1189   2.487       .  S
Cd1188     O1192   2.458       .  S
Cd1188     O1190   2.497       .  S
C1191      O1195   1.263       .  A
O1196      C1199   1.271       .  A
O1196     Cd1201   2.523       .  S
C1197      O1206   1.264       .  A
C1197      O1202   1.268       .  A
O1198      C1204   1.266       .  A
O1198     Cd1201   2.459       .  S
C1199      O1207   1.263       .  A
C1200      O1205   1.261       .  A
C1200      O1203   1.265       .  A
Cd1201     O1208   2.376       .  S
Cd1201     O1207   2.393       .  S
Cd1201     O1206   2.464       .  S
Cd1201     O1202   2.479       .  S
Cd1201     O1205   2.401       .  S
Cd1201     O1203   2.482       .  S
C1204      O1208   1.262       .  A
C1209      H1211   1.086       .  S
C1210      H1212   1.085       .  S
C1213      H1215   1.090       .  S
C1213      C1462   1.354       .  D
C1214      H1216   1.082       .  S
C1214      C1461   1.350   1_554  D
C1217      H1219   1.084       .  S
C1217      C1466   1.349   1_554  D
C1218      H1220   1.084       .  S
C1218      C1465   1.349       .  D
C1221      H1223   1.087       .  S
C1222      H1224   1.082       .  S
C1225      H1227   1.085       .  S
C1225      C1722   1.366       .  D
C1226      H1228   1.082       .  S
C1226      C1721   1.368       .  D
C1229      H1231   1.087       .  S
C1229      C1478   1.340   1_554  D
C1230      H1232   1.085       .  S
C1230      C1477   1.342       .  D
C1233      H1235   1.081       .  S
C1233      C1482   1.341   1_554  D
C1234      H1236   1.085       .  S
C1234      C1481   1.346       .  D
C1237      H1239   1.088       .  S
C1237      C1734   1.353       .  D
C1238      H1240   1.087       .  S
C1238      C1733   1.354       .  D
C1241      C1245   1.531       .  S
C1241      C1258   1.524       .  S
C1241      C1481   1.539       .  S
C1241      C1485   1.543       .  S
O1242      C1245   1.272       .  A
O1242     Cd1247   2.495       .  S
C1243      O1252   1.264       .  A
C1243      O1248   1.271       .  A
C1243      C1297   1.470       .  S
O1244      C1250   1.263       .  A
O1244     Cd1247   2.418       .  S
C1245      O1253   1.264       .  A
C1246      O1251   1.267       .  A
C1246      O1249   1.261       .  A
C1246      C1769   1.449       .  S
Cd1247     O1254   2.485       .  S
Cd1247     O1253   2.458       .  S
Cd1247     O1252   2.431       .  S
Cd1247     O1248   2.522       .  S
Cd1247     O1251   2.481       .  S
Cd1247     O1249   2.375       .  S
C1250      O1254   1.267       .  A
C1250      C1354   1.462       .  S
O1255      C1258   1.265       .  A
O1255     Cd1260   2.486       .  S
C1256      O1265   1.264       .  A
C1256      O1261   1.269       .  A
C1256      C1312   1.467       .  S
O1257      C1263   1.263       .  A
O1257     Cd1260   2.469       .  S
C1258      O1266   1.267       .  A
C1259      O1264   1.264       .  A
C1259      O1262   1.267       .  A
C1259      C1394   1.463       .  S
Cd1260     O1267   2.406       .  S
Cd1260     O1266   2.461       .  S
Cd1260     O1265   2.418       .  S
Cd1260     O1261   2.510       .  S
Cd1260     O1264   2.436       .  S
Cd1260     O1262   2.474       .  S
C1263      O1267   1.262       .  A
C1263      C1786   1.450       .  S
C1268      C1270   1.526       .  S
C1268      C1283   1.534       .  S
C1268      C1477   1.538       .  S
C1268      C1486   1.546       .  S
O1269      C1272   1.271       .  A
O1269     Cd1274   2.517       .  S
C1270      O1279   1.267       .  A
C1270      O1275   1.266       .  A
O1271      C1277   1.264       .  A
O1271     Cd1274   2.434       .  S
C1272      O1280   1.265       .  A
C1272      C1339   1.468       .  S
C1273      O1278   1.265       .  A
C1273      O1276   1.261       .  A
C1273      C1742   1.448   1_545  S
Cd1274     O1281   2.484       .  S
Cd1274     O1280   2.413       .  S
Cd1274     O1279   2.473       .  S
Cd1274     O1275   2.491       .  S
Cd1274     O1278   2.477       .  S
Cd1274     O1276   2.375       .  S
C1277      O1281   1.268       .  A
C1277      C1367   1.464       .  S
O1282      C1285   1.271       .  A
O1282     Cd1287   2.531       .  S
C1283      O1292   1.263       .  A
C1283      O1288   1.273       .  A
O1284      C1290   1.267       .  A
O1284     Cd1287   2.459       .  S
C1285      O1293   1.264       .  A
C1285      C1326   1.470       .  S
C1286      O1291   1.263       .  A
C1286      O1289   1.265       .  A
C1286      C1385   1.470       .  S
Cd1287     O1294   2.406       .  S
Cd1287     O1293   2.420       .  S
Cd1287     O1292   2.474       .  S
Cd1287     O1288   2.497       .  S
Cd1287     O1291   2.468       .  S
Cd1287     O1289   2.480       .  S
C1290      O1294   1.261       .  A
C1290      C1759   1.450       .  S
C1295      C1299   1.534       .  S
C1295      C1310   1.540       .  S
C1295      C1473   1.569       .  S
C1295      C1482   1.537       .  S
O1296      C1299   1.271       .  A
O1296     Cd1301   2.500       .  S
C1297      O1306   1.266       .  A
C1297      O1302   1.269       .  A
O1298      C1304   1.266       .  A
O1298     Cd1301   2.454       .  S
C1299      O1307   1.262       .  A
C1300      O1305   1.262       .  A
C1300      O1303   1.266       .  A
C1300      C1421   1.465       .  S
Cd1301     O1308   2.397       .  S
Cd1301     O1307   2.437       .  S
Cd1301     O1306   2.431       .  S
Cd1301     O1302   2.506       .  S
Cd1301     O1305   2.440       .  S
Cd1301     O1303   2.499       .  S
C1304      O1308   1.265       .  A
C1304      C1840   1.451       .  S
O1309      C1312   1.270       .  A
O1309     Cd1314   2.517       .  S
C1310      O1319   1.265       .  A
C1310      O1315   1.268       .  A
O1311      C1317   1.267       .  A
O1311     Cd1314   2.463       .  S
C1312      O1320   1.264       .  A
C1313      O1318   1.263       .  A
C1313      O1316   1.265       .  A
C1313      C1435   1.467       .  S
Cd1314     O1321   2.396       .  S
Cd1314     O1320   2.418       .  S
Cd1314     O1319   2.525       .  S
Cd1314     O1315   2.470       .  S
Cd1314     O1318   2.464       .  S
Cd1314     O1316   2.481       .  S
C1317      O1321   1.259       .  A
C1317      C1823   1.447       .  S
C1322      C1324   1.529       .  S
C1322      C1337   1.537       .  S
C1322      C1474   1.564       .  S
C1322      C1478   1.531       .  S
O1323      C1326   1.270       .  A
O1323     Cd1328   2.511       .  S
C1324      O1333   1.262       .  A
C1324      O1329   1.270       .  A
O1325      C1331   1.261       .  A
O1325     Cd1328   2.418       .  S
C1326      O1334   1.266       .  A
C1327      O1332   1.265       .  A
C1327      O1330   1.265       .  A
C1327      C1813   1.445   1_545  S
Cd1328     O1335   2.485       .  S
Cd1328     O1334   2.417       .  S
Cd1328     O1333   2.442       .  S
Cd1328     O1329   2.489       .  S
Cd1328     O1332   2.440       .  S
Cd1328     O1330   2.383       .  S
C1331      O1335   1.265       .  A
C1331      C1448   1.458       .  S
O1336      C1339   1.269       .  A
O1336     Cd1341   2.521       .  S
C1337      O1346   1.265       .  A
C1337      O1342   1.266       .  A
O1338      C1344   1.268       .  A
O1338     Cd1341   2.463       .  S
C1339      O1347   1.264       .  A
C1340      O1345   1.262       .  A
C1340      O1343   1.265       .  A
C1340      C1408   1.465       .  S
Cd1341     O1348   2.397       .  S
Cd1341     O1347   2.417       .  S
Cd1341     O1346   2.515       .  S
Cd1341     O1342   2.456       .  S
Cd1341     O1345   2.446       .  S
Cd1341     O1343   2.492       .  S
C1344      O1348   1.261       .  A
C1344      C1800   1.448   1_545  S
C1349      C1353   1.531       .  S
C1349      C1364   1.534       .  S
C1349      C1465   1.536       .  S
C1349      C1469   1.564       .  S
O1350      C1353   1.270       .  A
O1350     Cd1355   2.477       .  S
C1351      O1360   1.264       .  A
C1351      O1356   1.270       .  A
C1351      C1420   1.470       .  S
O1352      C1358   1.267       .  A
O1352     Cd1355   2.442       .  S
C1353      O1361   1.262       .  A
C1354      O1359   1.262       .  A
C1354      O1357   1.265       .  A
Cd1355     O1362   2.385       .  S
Cd1355     O1361   2.482       .  S
Cd1355     O1360   2.420       .  S
Cd1355     O1356   2.521       .  S
Cd1355     O1359   2.436       .  S
Cd1355     O1357   2.491       .  S
C1358      O1362   1.263       .  A
O1363      C1366   1.268       .  A
O1363     Cd1368   2.517       .  S
C1364      O1373   1.261       .  A
C1364      O1369   1.269       .  A
O1365      C1371   1.267       .  A
O1365     Cd1368   2.461       .  S
C1366      O1374   1.264       .  A
C1366      C1405   1.469       .  S
C1367      O1372   1.262       .  A
C1367      O1370   1.264       .  A
Cd1368     O1375   2.407       .  S
Cd1368     O1374   2.422       .  S
Cd1368     O1373   2.478       .  S
Cd1368     O1369   2.485       .  S
Cd1368     O1372   2.445       .  S
Cd1368     O1370   2.486       .  S
C1371      O1375   1.264       .  A
C1376      C1378   1.529       .  S
C1376      C1391   1.525       .  S
C1376      C1462   1.533       .  S
C1376      C1470   1.552       .  S
O1377      C1380   1.269       .  A
O1377     Cd1382   2.537       .  S
C1378      O1387   1.258       .  A
C1378      O1383   1.272       .  A
O1379      C1385   1.264       .  A
O1379     Cd1382   2.488       .  S
C1380      O1388   1.261       .  A
C1380      C1447   1.468       .  S
C1381      O1386   1.269       .  A
C1381      O1384   1.265       .  A
Cd1382     O1389   2.484       .  S
Cd1382     O1388   2.409       .  S
Cd1382     O1387   2.492       .  S
Cd1382     O1383   2.513       .  S
Cd1382     O1386   2.451       .  S
Cd1382     O1384   2.408       .  S
C1385      O1389   1.263       .  A
O1390      C1393   1.271       .  A
O1390     Cd1395   2.499       .  S
C1391      O1400   1.264       .  A
C1391      O1396   1.270       .  A
O1392      C1398   1.268       .  A
O1392     Cd1395   2.472       .  S
C1393      O1401   1.264       .  A
C1393      C1432   1.464       .  S
C1394      O1399   1.264       .  A
C1394      O1397   1.265       .  A
Cd1395     O1402   2.356       .  S
Cd1395     O1401   2.409       .  S
Cd1395     O1400   2.463       .  S
Cd1395     O1396   2.500       .  S
Cd1395     O1399   2.443       .  S
Cd1395     O1397   2.472       .  S
C1398      O1402   1.260       .  A
C1403      C1407   1.532       .  S
C1403      C1418   1.542       .  S
C1403      C1457   1.560       .  S
C1403      C1466   1.534       .  S
O1404      C1407   1.270       .  A
O1404     Cd1409   2.474       .  S
C1405      O1414   1.263       .  A
C1405      O1410   1.269       .  A
O1406      C1412   1.267       .  A
O1406     Cd1409   2.451       .  S
C1407      O1415   1.262       .  A
C1408      O1413   1.262       .  A
C1408      O1411   1.265       .  A
Cd1409     O1416   2.393       .  S
Cd1409     O1415   2.483       .  S
Cd1409     O1414   2.424       .  S
Cd1409     O1410   2.527       .  S
Cd1409     O1413   2.446       .  S
Cd1409     O1411   2.498       .  S
C1412      O1416   1.263       .  A
O1417      C1420   1.270       .  A
O1417     Cd1422   2.530       .  S
C1418      O1427   1.262       .  A
C1418      O1423   1.271       .  A
O1419      C1425   1.267       .  A
O1419     Cd1422   2.450       .  S
C1420      O1428   1.264       .  A
C1421      O1426   1.262       .  A
C1421      O1424   1.266       .  A
Cd1422     O1429   2.405       .  S
Cd1422     O1428   2.421       .  S
Cd1422     O1427   2.476       .  S
Cd1422     O1423   2.484       .  S
Cd1422     O1426   2.439       .  S
Cd1422     O1424   2.498       .  S
C1425      O1429   1.263       .  A
C1430      C1434   1.535       .  S
C1430      C1445   1.518       .  S
C1430      C1458   1.541       .  S
C1430      C1461   1.529       .  S
O1431      C1434   1.269       .  A
O1431     Cd1436   2.482       .  S
C1432      O1441   1.264       .  A
C1432      O1437   1.268       .  A
O1433      C1439   1.267       .  A
O1433     Cd1436   2.451       .  S
C1434      O1442   1.263       .  A
C1435      O1440   1.263       .  A
C1435      O1438   1.263       .  A
Cd1436     O1443   2.413       .  S
Cd1436     O1442   2.488       .  S
Cd1436     O1441   2.424       .  S
Cd1436     O1437   2.502       .  S
Cd1436     O1440   2.470       .  S
Cd1436     O1438   2.483       .  S
C1439      O1443   1.263       .  A
O1444      C1447   1.270       .  A
O1444     Cd1449   2.530       .  S
C1445      O1454   1.270       .  A
C1445      O1450   1.266       .  A
O1446      C1452   1.263       .  A
O1446     Cd1449   2.460       .  S
C1447      O1455   1.263       .  A
C1448      O1453   1.263       .  A
C1448      O1451   1.267       .  A
Cd1449     O1456   2.420       .  S
Cd1449     O1455   2.403       .  S
Cd1449     O1454   2.476       .  S
Cd1449     O1450   2.439       .  S
Cd1449     O1453   2.405       .  S
Cd1449     O1451   2.473       .  S
C1452      O1456   1.263       .  A
C1457      H1459   1.086       .  S
C1458      H1460   1.088       .  S
C1461      H1463   1.088       .  S
C1462      H1464   1.090       .  S
C1465      H1467   1.084       .  S
C1466      H1468   1.084   1_556  S
C1469      H1471   1.087       .  S
C1470      H1472   1.077       .  S
C1473      H1475   1.085       .  S
C1473      C1970   1.368       .  D
C1474      H1476   1.082       .  S
C1474      C1969   1.368   1_545  D
C1477      H1479   1.086       .  S
C1478      H1480   1.085       .  S
C1481      H1483   1.082       .  S
C1482      H1484   1.085       .  S
C1485      H1487   1.088       .  S
C1485      C1982   1.354       .  D
C1486      H1488   1.087       .  S
C1486      C1981   1.353       .  D
C1489      C1493   1.526       .  S
C1489      C1506   1.517       .  S
C1489      C1729   1.532       .  S
C1489      C1733   1.542   1_565  S
O1490      C1493   1.272       .  A
O1490     Cd1495   2.474       .  S
C1491      O1500   1.264       .  A
C1491      O1496   1.271       .  A
C1491      C1545   1.472       .  S
O1492      C1498   1.263       .  A
O1492     Cd1495   2.417       .  S
C1493      O1501   1.264       .  A
C1494      O1499   1.267       .  A
C1494      O1497   1.261       .  A
Cd1495     O1502   2.484       .  S
Cd1495     O1501   2.447       .  S
Cd1495     O1500   2.421       .  S
Cd1495     O1496   2.525       .  S
Cd1495     O1499   2.475       .  S
Cd1495     O1497   2.400       .  S
C1498      O1502   1.267       .  A
C1498      C1602   1.461       .  S
O1503      C1506   1.265       .  A
O1503     Cd1508   2.474       .  S
C1504      O1513   1.264       .  A
C1504      O1509   1.270       .  A
C1504      C1560   1.467       .  S
O1505      C1511   1.263       .  A
O1505     Cd1508   2.462       .  S
C1506      O1514   1.267       .  A
C1507      O1512   1.263       .  A
C1507      O1510   1.267       .  A
C1507      C1642   1.460       .  S
Cd1508     O1515   2.421       .  S
Cd1508     O1514   2.436       .  S
Cd1508     O1513   2.402       .  S
Cd1508     O1509   2.517       .  S
Cd1508     O1512   2.428       .  S
Cd1508     O1510   2.480       .  S
C1511      O1515   1.262       .  A
C1516      C1518   1.529       .  S
C1516      C1531   1.533       .  S
C1516      C1725   1.535       .  S
C1516      C1734   1.549       .  S
O1517      C1520   1.270       .  A
O1517     Cd1522   2.500       .  S
C1518      O1527   1.268       .  A
C1518      O1523   1.266       .  A
O1519      C1525   1.265       .  A
O1519     Cd1522   2.440       .  S
C1520      O1528   1.264       .  A
C1520      C1587   1.465       .  S
C1521      O1526   1.266       .  A
C1521      O1524   1.261       .  A
Cd1522     O1529   2.484       .  S
Cd1522     O1528   2.410       .  S
Cd1522     O1527   2.472       .  S
Cd1522     O1523   2.498       .  S
Cd1522     O1526   2.476       .  S
Cd1522     O1524   2.386       .  S
C1525      O1529   1.268       .  A
C1525      C1615   1.467       .  S
O1530      C1533   1.270       .  A
O1530     Cd1535   2.523       .  S
C1531      O1540   1.265       .  A
C1531      O1536   1.271       .  A
O1532      C1538   1.268       .  A
O1532     Cd1535   2.479       .  S
C1533      O1541   1.263       .  A
C1533      C1574   1.466       .  S
C1534      O1539   1.263       .  A
C1534      O1537   1.266       .  A
C1534      C1633   1.471       .  S
Cd1535     O1542   2.421       .  S
Cd1535     O1541   2.409       .  S
Cd1535     O1540   2.467       .  S
Cd1535     O1536   2.501       .  S
Cd1535     O1539   2.462       .  S
Cd1535     O1537   2.503       .  S
C1538      O1542   1.262       .  A
C1543      C1547   1.538       .  S
C1543      C1558   1.542       .  S
C1543      C1721   1.570   1_565  S
C1543      C1730   1.541       .  S
O1544      C1547   1.272       .  A
O1544     Cd1549   2.481       .  S
C1545      O1554   1.265       .  A
C1545      O1550   1.269       .  A
O1546      C1552   1.266       .  A
O1546     Cd1549   2.440       .  S
C1547      O1555   1.261       .  A
C1548      O1553   1.263       .  A
C1548      O1551   1.266       .  A
C1548      C1669   1.463       .  S
Cd1549     O1556   2.392       .  S
Cd1549     O1555   2.459       .  S
Cd1549     O1554   2.435       .  S
Cd1549     O1550   2.527       .  S
Cd1549     O1553   2.432       .  S
Cd1549     O1551   2.489       .  S
C1552      O1556   1.265       .  A
O1557      C1560   1.270       .  A
O1557     Cd1562   2.531       .  S
C1558      O1567   1.263       .  A
C1558      O1563   1.269       .  A
O1559      C1565   1.267       .  A
O1559     Cd1562   2.460       .  S
C1560      O1568   1.263       .  A
C1561      O1566   1.262       .  A
C1561      O1564   1.265       .  A
C1561      C1683   1.467       .  S
Cd1562     O1569   2.397       .  S
Cd1562     O1568   2.407       .  S
Cd1562     O1567   2.535       .  S
Cd1562     O1563   2.456       .  S
Cd1562     O1566   2.447       .  S
Cd1562     O1564   2.493       .  S
C1565      O1569   1.260       .  A
C1570      C1572   1.528       .  S
C1570      C1585   1.546       .  S
C1570      C1722   1.566       .  S
C1570      C1726   1.534       .  S
O1571      C1574   1.270       .  A
O1571     Cd1576   2.513       .  S
C1572      O1581   1.263       .  A
C1572      O1577   1.270       .  A
O1573      C1579   1.262       .  A
O1573     Cd1576   2.412       .  S
C1574      O1582   1.264       .  A
C1575      O1580   1.265       .  A
C1575      O1578   1.264       .  A
Cd1576     O1583   2.477       .  S
Cd1576     O1582   2.403       .  S
Cd1576     O1581   2.439       .  S
Cd1576     O1577   2.480       .  S
Cd1576     O1580   2.446       .  S
Cd1576     O1578   2.377       .  S
C1579      O1583   1.266       .  A
C1579      C1696   1.458       .  S
O1584      C1587   1.269       .  A
O1584     Cd1589   2.507       .  S
C1585      O1594   1.266       .  A
C1585      O1590   1.266       .  A
O1586      C1592   1.267       .  A
O1586     Cd1589   2.469       .  S
C1587      O1595   1.264       .  A
C1588      O1593   1.263       .  A
C1588      O1591   1.266       .  A
C1588      C1656   1.469       .  S
Cd1589     O1596   2.399       .  S
Cd1589     O1595   2.419       .  S
Cd1589     O1594   2.544       .  S
Cd1589     O1590   2.469       .  S
Cd1589     O1593   2.457       .  S
Cd1589     O1591   2.487       .  S
C1592      O1596   1.260       .  A
C1597      C1601   1.527       .  S
C1597      C1612   1.534       .  S
C1597      C1713   1.543       .  S
C1597      C1717   1.565       .  S
O1598      C1601   1.269       .  A
O1598     Cd1603   2.478       .  S
C1599      O1608   1.265       .  A
C1599      O1604   1.269       .  A
C1599      C1668   1.470       .  S
O1600      C1606   1.266       .  A
O1600     Cd1603   2.455       .  S
C1601      O1609   1.261       .  A
C1602      O1607   1.261       .  A
C1602      O1605   1.266       .  A
Cd1603     O1610   2.384       .  S
Cd1603     O1609   2.460       .  S
Cd1603     O1608   2.421       .  S
Cd1603     O1604   2.519       .  S
Cd1603     O1607   2.426       .  S
Cd1603     O1605   2.497       .  S
C1606      O1610   1.264       .  A
O1611      C1614   1.268       .  A
O1611     Cd1616   2.530       .  S
C1612      O1621   1.263       .  A
C1612      O1617   1.269       .  A
O1613      C1619   1.267       .  A
O1613     Cd1616   2.457       .  S
C1614      O1622   1.263       .  A
C1614      C1653   1.469       .  S
C1615      O1620   1.262       .  A
C1615      O1618   1.265       .  A
Cd1616     O1623   2.414       .  S
Cd1616     O1622   2.417       .  S
Cd1616     O1621   2.497       .  S
Cd1616     O1617   2.472       .  S
Cd1616     O1620   2.450       .  S
Cd1616     O1618   2.494       .  S
C1619      O1623   1.264       .  A
C1624      C1626   1.526       .  S
C1624      C1639   1.519       .  S
C1624      C1710   1.529       .  S
C1624      C1718   1.550       .  S
O1625      C1628   1.269       .  A
O1625     Cd1630   2.537       .  S
C1626      O1635   1.258       .  A
C1626      O1631   1.272       .  A
O1627      C1633   1.265       .  A
O1627     Cd1630   2.468       .  S
C1628      O1636   1.261       .  A
C1628      C1695   1.468       .  S
C1629      O1634   1.269       .  A
C1629      O1632   1.264       .  A
Cd1630     O1637   2.494       .  S
Cd1630     O1636   2.407       .  S
Cd1630     O1635   2.494       .  S
Cd1630     O1631   2.489       .  S
Cd1630     O1634   2.448       .  S
Cd1630     O1632   2.399       .  S
C1633      O1637   1.265       .  A
O1638      C1641   1.271       .  A
O1638     Cd1643   2.492       .  S
C1639      O1648   1.263       .  A
C1639      O1644   1.270       .  A
O1640      C1646   1.266       .  A
O1640     Cd1643   2.452       .  S
C1641      O1649   1.264       .  A
C1641      C1680   1.461       .  S
C1642      O1647   1.263       .  A
C1642      O1645   1.266       .  A
Cd1643     O1650   2.387       .  S
Cd1643     O1649   2.399       .  S
Cd1643     O1648   2.446       .  S
Cd1643     O1644   2.483       .  S
Cd1643     O1647   2.423       .  S
Cd1643     O1645   2.476       .  S
C1646      O1650   1.262       .  A
C1651      C1655   1.536       .  S
C1651      C1666   1.542       .  S
C1651      C1705   1.565       .  S
C1651      C1714   1.535       .  S
O1652      C1655   1.271       .  A
O1652     Cd1657   2.476       .  S
C1653      O1662   1.263       .  A
C1653      O1658   1.270       .  A
O1654      C1660   1.268       .  A
O1654     Cd1657   2.448       .  S
C1655      O1663   1.262       .  A
C1656      O1661   1.263       .  A
C1656      O1659   1.265       .  A
Cd1657     O1664   2.387       .  S
Cd1657     O1663   2.499       .  S
Cd1657     O1662   2.411       .  S
Cd1657     O1658   2.535       .  S
Cd1657     O1661   2.462       .  S
Cd1657     O1659   2.492       .  S
C1660      O1664   1.263       .  A
O1665      C1668   1.271       .  A
O1665     Cd1670   2.535       .  S
C1666      O1675   1.263       .  A
C1666      O1671   1.272       .  A
O1667      C1673   1.267       .  A
O1667     Cd1670   2.438       .  S
C1668      O1676   1.263       .  A
C1669      O1674   1.262       .  A
C1669      O1672   1.267       .  A
Cd1670     O1677   2.386       .  S
Cd1670     O1676   2.417       .  S
Cd1670     O1675   2.474       .  S
Cd1670     O1671   2.484       .  S
Cd1670     O1674   2.428       .  S
Cd1670     O1672   2.490       .  S
C1673      O1677   1.263       .  A
C1678      C1682   1.527       .  S
C1678      C1693   1.527       .  S
C1678      C1706   1.548       .  S
C1678      C1709   1.538       .  S
O1679      C1682   1.268       .  A
O1679     Cd1684   2.477       .  S
C1680      O1689   1.265       .  A
C1680      O1685   1.268       .  A
O1681      C1687   1.267       .  A
O1681     Cd1684   2.464       .  S
C1682      O1690   1.264       .  A
C1683      O1688   1.263       .  A
C1683      O1686   1.265       .  A
Cd1684     O1691   2.402       .  S
Cd1684     O1690   2.470       .  S
Cd1684     O1689   2.410       .  S
Cd1684     O1685   2.485       .  S
Cd1684     O1688   2.455       .  S
Cd1684     O1686   2.495       .  S
C1687      O1691   1.263       .  A
O1692      C1695   1.269       .  A
O1692     Cd1697   2.531       .  S
C1693      O1702   1.265       .  A
C1693      O1698   1.270       .  A
O1694      C1700   1.264       .  A
O1694     Cd1697   2.454       .  S
C1695      O1703   1.262       .  A
C1696      O1701   1.264       .  A
C1696      O1699   1.268       .  A
Cd1697     O1704   2.396       .  S
Cd1697     O1703   2.406       .  S
Cd1697     O1702   2.457       .  S
Cd1697     O1698   2.484       .  S
Cd1697     O1701   2.411       .  S
Cd1697     O1699   2.468       .  S
C1700      O1704   1.262       .  A
C1705      H1707   1.086       .  S
C1706      H1708   1.085       .  S
C1709      H1711   1.089       .  S
C1709      C1958   1.356       .  D
C1710      H1712   1.090       .  S
C1710      C1957   1.350   1_554  D
C1713      H1715   1.084       .  S
C1713      C1962   1.349   1_554  D
C1714      H1716   1.084       .  S
C1714      C1961   1.351       .  D
C1717      H1719   1.087       .  S
C1718      H1720   1.077       .  S
C1721      H1723   1.085       .  S
C1722      H1724   1.083       .  S
C1725      H1727   1.087       .  S
C1725      C1974   1.343   1_554  D
C1726      H1728   1.086       .  S
C1726      C1973   1.340       .  D
C1729      H1731   1.081       .  S
C1729      C1978   1.343   1_554  D
C1730      H1732   1.085       .  S
C1730      C1977   1.346       .  D
C1733      H1735   1.088       .  S
C1734      H1736   1.087       .  S
C1737      C1741   1.527       .  S
C1737      C1754   1.524       .  S
C1737      C1977   1.534       .  S
C1737      C1981   1.543   1_565  S
O1738      C1741   1.271       .  A
O1738     Cd1743   2.478       .  S
C1739      O1748   1.264       .  A
C1739      O1744   1.271       .  A
C1739      C1793   1.465       .  S
O1740      C1746   1.264       .  A
O1740     Cd1743   2.425       .  S
C1741      O1749   1.265       .  A
C1742      O1747   1.268       .  A
C1742      O1745   1.260       .  A
Cd1743     O1750   2.462       .  S
Cd1743     O1749   2.457       .  S
Cd1743     O1748   2.406       .  S
Cd1743     O1744   2.508       .  S
Cd1743     O1747   2.480       .  S
Cd1743     O1745   2.372       .  S
C1746      O1750   1.266       .  A
C1746      C1850   1.459       .  S
O1751      C1754   1.266       .  A
O1751     Cd1756   2.488       .  S
C1752      O1761   1.263       .  A
C1752      O1757   1.270       .  A
C1752      C1808   1.464       .  S
O1753      C1759   1.264   1_565  A
O1753     Cd1756   2.458       .  S
C1754      O1762   1.268       .  A
C1755      O1760   1.263       .  A
C1755      O1758   1.267       .  A
C1755      C1890   1.462       .  S
Cd1756     O1763   2.409       .  S
Cd1756     O1762   2.445       .  S
Cd1756     O1761   2.393       .  S
Cd1756     O1757   2.515       .  S
Cd1756     O1760   2.423       .  S
Cd1756     O1758   2.488       .  S
C1759      O1763   1.263   1_545  A
C1764      C1766   1.524       .  S
C1764      C1779   1.536       .  S
C1764      C1973   1.533       .  S
C1764      C1982   1.546       .  S
O1765      C1768   1.270       .  A
O1765     Cd1770   2.490       .  S
C1766      O1775   1.268       .  A
C1766      O1771   1.265       .  A
O1767      C1773   1.265       .  A
O1767     Cd1770   2.434       .  S
C1768      O1776   1.265       .  A
C1768      C1835   1.463       .  S
C1769      O1774   1.266       .  A
C1769      O1772   1.260       .  A
Cd1770     O1777   2.480       .  S
Cd1770     O1776   2.411       .  S
Cd1770     O1775   2.457       .  S
Cd1770     O1771   2.489       .  S
Cd1770     O1774   2.483       .  S
Cd1770     O1772   2.373       .  S
C1773      O1777   1.268       .  A
C1773      C1863   1.464       .  S
O1778      C1781   1.271       .  A
O1778     Cd1783   2.526       .  S
C1779      O1788   1.264       .  A
C1779      O1784   1.272       .  A
O1780      C1786   1.268       .  A
O1780     Cd1783   2.468       .  S
C1781      O1789   1.264       .  A
C1781      C1822   1.468       .  S
C1782      O1787   1.264       .  A
C1782      O1785   1.266       .  A
C1782      C1881   1.471       .  S
Cd1783     O1790   2.395       .  S
Cd1783     O1789   2.415       .  S
Cd1783     O1788   2.489       .  S
Cd1783     O1784   2.502       .  S
Cd1783     O1787   2.470       .  S
Cd1783     O1785   2.492       .  S
C1786      O1790   1.260       .  A
C1791      C1795   1.534       .  S
C1791      C1806   1.536       .  S
C1791      C1969   1.569       .  S
C1791      C1978   1.537       .  S
O1792      C1795   1.271       .  A
O1792     Cd1797   2.485       .  S
C1793      O1802   1.265       .  A
C1793      O1798   1.269       .  A
O1794      C1800   1.265       .  A
O1794     Cd1797   2.433       .  S
C1795      O1803   1.262       .  A
C1796      O1801   1.261       .  A
C1796      O1799   1.267       .  A
C1796      C1917   1.461       .  S
Cd1797     O1804   2.403       .  S
Cd1797     O1803   2.434       .  S
Cd1797     O1802   2.413       .  S
Cd1797     O1798   2.508       .  S
Cd1797     O1801   2.414       .  S
Cd1797     O1799   2.500       .  S
C1800      O1804   1.265       .  A
O1805      C1808   1.270       .  A
O1805     Cd1810   2.529       .  S
C1806      O1815   1.264       .  A
C1806      O1811   1.268       .  A
O1807      C1813   1.269       .  A
O1807     Cd1810   2.464       .  S
C1808      O1816   1.262       .  A
C1809      O1814   1.262       .  A
C1809      O1812   1.265       .  A
C1809      C1931   1.466       .  S
Cd1810     O1817   2.382       .  S
Cd1810     O1816   2.397       .  S
Cd1810     O1815   2.508       .  S
Cd1810     O1811   2.454       .  S
Cd1810     O1814   2.444       .  S
Cd1810     O1812   2.496       .  S
C1813      O1817   1.260       .  A
C1818      C1820   1.530       .  S
C1818      C1833   1.538       .  S
C1818      C1970   1.564       .  S
C1818      C1974   1.534       .  S
O1819      C1822   1.270       .  A
O1819     Cd1824   2.515       .  S
C1820      O1829   1.262       .  A
C1820      O1825   1.270       .  A
O1821      C1827   1.261       .  A
O1821     Cd1824   2.409       .  S
C1822      O1830   1.265       .  A
C1823      O1828   1.264       .  A
C1823      O1826   1.265       .  A
Cd1824     O1831   2.492       .  S
Cd1824     O1830   2.414       .  S
Cd1824     O1829   2.434       .  S
Cd1824     O1825   2.491       .  S
Cd1824     O1828   2.443       .  S
Cd1824     O1826   2.401       .  S
C1827      O1831   1.266       .  A
C1827      C1944   1.458       .  S
O1832      C1835   1.268       .  A
O1832     Cd1837   2.497       .  S
C1833      O1842   1.266       .  A
C1833      O1838   1.266       .  A
O1834      C1840   1.268       .  A
O1834     Cd1837   2.478       .  S
C1835      O1843   1.264       .  A
C1836      O1841   1.263       .  A
C1836      O1839   1.265       .  A
C1836      C1904   1.467       .  S
Cd1837     O1844   2.396       .  S
Cd1837     O1843   2.419       .  S
Cd1837     O1842   2.516       .  S
Cd1837     O1838   2.457       .  S
Cd1837     O1841   2.447       .  S
Cd1837     O1839   2.492       .  S
C1840      O1844   1.260       .  A
C1845      C1849   1.530       .  S
C1845      C1860   1.533       .  S
C1845      C1961   1.539       .  S
C1845      C1965   1.563       .  S
O1846      C1849   1.269       .  A
O1846     Cd1851   2.481       .  S
C1847      O1856   1.264       .  A
C1847      O1852   1.270       .  A
C1847      C1916   1.466       .  S
O1848      C1854   1.267       .  A
O1848     Cd1851   2.444       .  S
C1849      O1857   1.263       .  A
C1850      O1855   1.262       .  A
C1850      O1853   1.265       .  A
Cd1851     O1858   2.377       .  S
Cd1851     O1857   2.473       .  S
Cd1851     O1856   2.413       .  S
Cd1851     O1852   2.510       .  S
Cd1851     O1855   2.434       .  S
Cd1851     O1853   2.471       .  S
C1854      O1858   1.262       .  A
O1859      C1862   1.268       .  A
O1859     Cd1864   2.515       .  S
C1860      O1869   1.261       .  A
C1860      O1865   1.269       .  A
O1861      C1867   1.267       .  A
O1861     Cd1864   2.455       .  S
C1862      O1870   1.263       .  A
C1862      C1901   1.464       .  S
C1863      O1868   1.261       .  A
C1863      O1866   1.265       .  A
Cd1864     O1871   2.406       .  S
Cd1864     O1870   2.409       .  S
Cd1864     O1869   2.469       .  S
Cd1864     O1865   2.491       .  S
Cd1864     O1868   2.439       .  S
Cd1864     O1866   2.491       .  S
C1867      O1871   1.266       .  A
C1872      C1874   1.523       .  S
C1872      C1887   1.526       .  S
C1872      C1958   1.532       .  S
C1872      C1966   1.552       .  S
O1873      C1876   1.269       .  A
O1873     Cd1878   2.524       .  S
C1874      O1883   1.258       .  A
C1874      O1879   1.272       .  A
O1875      C1881   1.265       .  A
O1875     Cd1878   2.474       .  S
C1876      O1884   1.261       .  A
C1876      C1943   1.462       .  S
C1877      O1882   1.270       .  A
C1877      O1880   1.264       .  A
Cd1878     O1885   2.484       .  S
Cd1878     O1884   2.386       .  S
Cd1878     O1883   2.490       .  S
Cd1878     O1879   2.486       .  S
Cd1878     O1882   2.450       .  S
Cd1878     O1880   2.393       .  S
C1881      O1885   1.264       .  A
O1886      C1889   1.271       .  A
O1886     Cd1891   2.502       .  S
C1887      O1896   1.264       .  A
C1887      O1892   1.271       .  A
O1888      C1894   1.266       .  A
O1888     Cd1891   2.452       .  S
C1889      O1897   1.264       .  A
C1889      C1928   1.464       .  S
C1890      O1895   1.263       .  A
C1890      O1893   1.266       .  A
Cd1891     O1898   2.387       .  S
Cd1891     O1897   2.409       .  S
Cd1891     O1896   2.464       .  S
Cd1891     O1892   2.496       .  S
Cd1891     O1895   2.424       .  S
Cd1891     O1893   2.484       .  S
C1894      O1898   1.260       .  A
C1899      C1903   1.526       .  S
C1899      C1914   1.528       .  S
C1899      C1953   1.553       .  S
C1899      C1962   1.542       .  S
O1900      C1903   1.266       .  A
O1900     Cd1905   2.489       .  S
C1901      O1910   1.264       .  A
C1901      O1906   1.272       .  A
O1902      C1908   1.265       .  A
O1902     Cd1905   2.463       .  S
C1903      O1911   1.268       .  A
C1904      O1909   1.264       .  A
C1904      O1907   1.267       .  A
Cd1905     O1912   2.403       .  S
Cd1905     O1911   2.474       .  S
Cd1905     O1910   2.394       .  S
Cd1905     O1906   2.508       .  S
Cd1905     O1909   2.444       .  S
Cd1905     O1907   2.492       .  S
C1908      O1912   1.260       .  A
O1913      C1916   1.269       .  A
O1913     Cd1918   2.512       .  S
C1914      O1923   1.263       .  A
C1914      O1919   1.271       .  A
O1915      C1921   1.267       .  A
O1915     Cd1918   2.461       .  S
C1916      O1924   1.264       .  A
C1917      O1922   1.262       .  A
C1917      O1920   1.266       .  A
Cd1918     O1925   2.407       .  S
Cd1918     O1924   2.415       .  S
Cd1918     O1923   2.447       .  S
Cd1918     O1919   2.488       .  S
Cd1918     O1922   2.418       .  S
Cd1918     O1920   2.489       .  S
C1921      O1925   1.263       .  A
C1926      C1930   1.530       .  S
C1926      C1941   1.522       .  S
C1926      C1954   1.549       .  S
C1926      C1957   1.538       .  S
O1927      C1930   1.269       .  A
O1927     Cd1932   2.481       .  S
C1928      O1937   1.265       .  A
C1928      O1933   1.268       .  A
O1929      C1935   1.266       .  A
O1929     Cd1932   2.452       .  S
C1930      O1938   1.264       .  A
C1931      O1936   1.262       .  A
C1931      O1934   1.265       .  A
Cd1932     O1939   2.397       .  S
Cd1932     O1938   2.484       .  S
Cd1932     O1937   2.422       .  S
Cd1932     O1933   2.499       .  S
Cd1932     O1936   2.448       .  S
Cd1932     O1934   2.498       .  S
C1935      O1939   1.263       .  A
O1940      C1943   1.270       .  A
O1940     Cd1945   2.517       .  S
C1941      O1950   1.265       .  A
C1941      O1946   1.269       .  A
O1942      C1948   1.264       .  A
O1942     Cd1945   2.450       .  S
C1943      O1951   1.262       .  A
C1944      O1949   1.264       .  A
C1944      O1947   1.268       .  A
Cd1945     O1952   2.402       .  S
Cd1945     O1951   2.380       .  S
Cd1945     O1950   2.457       .  S
Cd1945     O1946   2.453       .  S
Cd1945     O1949   2.399       .  S
Cd1945     O1947   2.472       .  S
C1948      O1952   1.262       .  A
C1953      H1955   1.084       .  S
C1954      H1956   1.085       .  S
C1957      H1959   1.089       .  S
C1958      H1960   1.090       .  S
C1961      H1963   1.084       .  S
C1962      H1964   1.086       .  S
C1965      H1967   1.087       .  S
C1966      H1968   1.078       .  S
C1969      H1971   1.085   1_565  S
C1970      H1972   1.083       .  S
C1973      H1975   1.087       .  S
C1974      H1976   1.085       .  S
C1977      H1979   1.080       .  S
C1978      H1980   1.085       .  S
C1981      H1983   1.087       .  S
C1982      H1984   1.087       .  S
