geometry optimzed in LAMMPS
_audit_creation_date              2020-11-30 
_audit_creation_method            'lammps2cif' 
_symmetry_space_group_name_H-M    'P1' 
_symmetry_Int_Tables_number       1 
_symmetry_cell_setting            triclinic 
loop_ 
_symmetry_equiv_pos_as_xyz 
  x,y,z 
_cell_length_a                    39.60318996 
_cell_length_b                    39.669395191806174 
_cell_length_c                    39.62987893179607 
_cell_angle_alpha                 90.12269759458718 
_cell_angle_beta                  89.80118127968315 
_cell_angle_gamma                 89.53414498558794 
loop_ 
_atom_site_label 
_atom_site_type_symbol 
_atom_site_fract_x 
_atom_site_fract_y 
_atom_site_fract_z 
_atom_site_charge 
N1          N  0.00378742  0.25001168  0.19913061    -0.37300
N2          N  0.00134691  0.30088150  0.25211358    -0.57900
N3          N  0.00549791  0.24816537  0.30242870    -0.37300
N4          N  0.00432501  0.19736896  0.24949711    -0.57900
C5          C  0.99459506  0.27789509  0.18173488     0.26300
C6          C  0.99476356  0.22295836  0.18043475     0.26300
C7          C  0.99533538  0.27495830  0.32124606     0.26300
C8          C  0.99733186  0.22005405  0.31981606     0.26300
C9          C  0.00879556  0.32034184  0.22518155     0.34900
C10         C  0.00853127  0.31938164  0.27984070     0.34900
C11         C  0.01039747  0.17866910  0.22157509     0.34900
C12         C  0.01219708  0.17770558  0.27615735     0.34900
C13         C  0.97935857  0.26849290  0.15173262    -0.22600
C14         C  0.97943821  0.23379840  0.15092334    -0.22600
C15         C  0.98026206  0.26371100  0.35072495    -0.22600
C16         C  0.98159429  0.22905171  0.34985946    -0.22600
C17         C  0.02110959  0.35118397  0.23584223    -0.23600
C18         C  0.02091332  0.35058279  0.27048807    -0.23600
C19         C  0.02260674  0.14707647  0.23049690    -0.23600
C20         C  0.02379347  0.14648128  0.26513593    -0.23600
C21         C  0.00192561  0.31142561  0.19133563    -0.19000
C22         C  0.00200272  0.18891473  0.18850850    -0.19000
C23         C  0.00557573  0.18664060  0.31007954    -0.19000
C24         C  0.00143654  0.30915227  0.31326981    -0.19000
H25         H  0.96942676  0.28491328  0.13231433     0.13900
H26         H  0.96957620  0.21834738  0.13075087     0.13900
H27         H  0.96955863  0.27887432  0.37087838     0.13900
H28         H  0.97210780  0.21237347  0.36921215     0.13900
H29         H  0.02914552  0.37207554  0.22033802     0.12200
H30         H  0.02881633  0.37088263  0.28686238     0.12200
H31         H  0.02939696  0.12642120  0.21385867     0.12200
H32         H  0.03158893  0.12524096  0.28041330     0.12200
H33         H  0.01890682  0.24960102  0.22056601     0.25500
H34         H  0.02058639  0.24901951  0.28087007     0.25500
O35         O  0.49807939  0.09549452  0.05412162    -0.87200
O36         O  0.50159252  0.40480839  0.05758120    -0.87300
O37         O  0.44407377  0.99990613  0.09547412    -0.89000
O38         O  0.05449008  0.99963342  0.09534533    -0.87800
O39         O  0.09544289  0.00044532  0.05414910    -0.87400
O40         O  0.40119649  0.50238955  0.05720971    -0.88700
O41         O  0.49832759  0.44600550  0.09829745    -0.87200
O42         O  0.49655478  0.05498384  0.09546178    -0.86800
Zr43       Zr  0.49913680  0.99962985  0.06819302     2.84300
O44         O  0.03209306  0.46640436  0.03625987    -1.08800
O45         O  0.46501872  0.03354142  0.03388736    -1.09500
C46         C  0.49703587  0.08592800  0.08522633     1.05900
C47         C  0.50054766  0.41493551  0.08858216     1.05900
C48         C  0.41308059  0.00144427  0.08553853     1.08900
C49         C  0.08558093  0.00026650  0.08524447     1.06600
H50         H  0.44949075  0.45166452  0.05096451     0.32200
O51         O  0.46343567  0.46569404  0.03683136    -1.29700
H52         H  0.04668972  0.04741557  0.04839253     0.31900
O53         O  0.03290902  0.03344399  0.03407454    -1.31400
O54         O  0.49970928  0.40257650  0.44896589    -0.87200
O55         O  0.50357199  0.09481029  0.44495060    -0.88700
O56         O  0.40312466  0.44566077  0.50204451    -0.87200
O57         O  0.09525007  0.44489777  0.50090447    -0.87300
O58         O  0.09680472  0.05317352  0.50143815    -0.87000
O59         O  0.40477053  0.05616925  0.50014139    -0.86800
O60         O  0.44250241  0.49886200  0.40717034    -0.87200
O61         O  0.05196752  0.49850525  0.40602288    -0.86600
O62         O  0.40195194  0.50159436  0.44861332    -0.87700
O63         O  0.09330142  0.50207297  0.44639852    -0.86900
O64         O  0.44409616  0.40438547  0.50501237    -0.87300
O65         O  0.44607666  0.09649156  0.50222326    -0.87000
O66         O  0.05611922  0.09469674  0.50341869    -0.86600
O67         O  0.05440037  0.40427964  0.50474699    -0.87000
O68         O  0.49626779  0.44294520  0.40763413    -0.87300
O69         O  0.50011916  0.05352286  0.40431573    -0.88700
Zr70       Zr  0.49909475  0.43164096  0.50331590     2.83100
Zr71       Zr  0.50077813  0.06795317  0.50031060     2.83500
Zr72       Zr  0.43064902  0.50052361  0.50300581     2.84100
Zr73       Zr  0.06681613  0.49943885  0.50173733     2.83400
Zr74       Zr  0.49768505  0.49858064  0.43445873     2.84200
O75         O  0.03417333  0.03305882  0.46595273    -1.09300
O76         O  0.46414186  0.46511849  0.46922154    -1.08800
C77         C  0.49788112  0.41199239  0.41781064     1.05900
C78         C  0.50235302  0.08456933  0.41396827     1.08500
C79         C  0.41303287  0.41455874  0.50358093     1.06100
C80         C  0.08539827  0.41402557  0.50295642     1.06400
C81         C  0.08716687  0.08432718  0.50318643     1.06000
C82         C  0.41496450  0.08696443  0.50153355     1.05600
C83         C  0.41148867  0.50039953  0.41740738     1.06000
C84         C  0.08297519  0.50081290  0.41556382     1.05500
H85         H  0.45217413  0.04860762  0.45200446     0.32200
O86         O  0.46607775  0.03444640  0.46614198    -1.30400
H87         H  0.04680534  0.45069877  0.45405869     0.32200
O88         O  0.03276792  0.46490102  0.46819387    -1.31700
N89         N  0.24928198  0.00520923  0.19813986    -0.37300
N90         N  0.30112187  0.00310935  0.24994320    -0.57900
N91         N  0.24948183  0.00209124  0.30104864    -0.37300
N92         N  0.19762840  0.00091852  0.24930952    -0.57900
C93         C  0.27709257  0.99597010  0.18049705     0.26300
C94         C  0.22219243  0.99536016  0.18005940     0.26300
C95         C  0.27707947  0.99273611  0.31889960     0.26300
C96         C  0.22208092  0.99186002  0.31856883     0.26300
C97         C  0.31947548  0.01239687  0.22281764     0.34900
C98         C  0.31984686  0.01037250  0.27739825     0.34900
C99         C  0.17880289  0.00964941  0.22229367     0.34900
C100        C  0.17876648  0.00815227  0.27685987     0.34900
C101        C  0.26758559  0.97949654  0.15112828    -0.22600
C102        C  0.23283036  0.97925943  0.15078715    -0.22600
C103        C  0.26709126  0.97598330  0.34789062    -0.22600
C104        C  0.23233995  0.97545935  0.34769769    -0.22600
C105        C  0.34979349  0.02630123  0.23308518    -0.23600
C106        C  0.35008462  0.02487416  0.26774785    -0.23600
C107        C  0.14799239  0.02288406  0.23266722    -0.23600
C108        C  0.14797056  0.02195483  0.26733816    -0.23600
C109        C  0.31047573  0.00468805  0.18922487    -0.19000
C110        C  0.18833152  0.00279783  0.18862283    -0.19000
C111        C  0.18824625  0.99967381  0.31012042    -0.19000
C112        C  0.31073490  0.00125555  0.31061409    -0.19000
H113        H  0.28394593  0.96908017  0.13175024     0.13900
H114        H  0.21720153  0.96864893  0.13116115     0.13900
H115        H  0.28312571  0.96554205  0.36736543     0.13900
H116        H  0.21643911  0.96460950  0.36702820     0.13900
H117        H  0.36990121  0.03581868  0.21728720     0.12200
H118        H  0.37037639  0.03316690  0.28390492     0.12200
H119        H  0.12756416  0.03190496  0.21693276     0.12200
H120        H  0.12750092  0.03017937  0.28361207     0.12200
H121        H  0.24879564  0.02093944  0.21924340     0.25500
H122        H  0.24916358  0.01819625  0.28032011     0.25500
N123        N  0.24932166  0.30139611  0.50090492    -0.37300
N124        N  0.30161037  0.25067503  0.50421460    -0.57900
N125        N  0.25020520  0.19844759  0.50411110    -0.37300
N126        N  0.19781426  0.24911107  0.50463178    -0.57900
C127        C  0.27638202  0.32026295  0.50930309     0.26300
C128        C  0.22141704  0.31945482  0.50917874     0.26300
C129        C  0.27813734  0.18087056  0.51301559     0.26300
C130        C  0.22317369  0.18003977  0.51360919     0.26300
C131        C  0.32046571  0.27781145  0.49639512     0.34900
C132        C  0.32087546  0.22331758  0.49719883     0.34900
C133        C  0.17856777  0.27607308  0.49632248     0.34900
C134        C  0.17897791  0.22151477  0.49843008     0.34900
C135        C  0.26553476  0.35057302  0.52321725    -0.22600
C136        C  0.23081509  0.35007434  0.52312963    -0.22600
C137        C  0.26882844  0.15107043  0.52859924    -0.22600
C138        C  0.23407869  0.15058284  0.52905075    -0.22600
C139        C  0.35176067  0.26767753  0.48415974    -0.23600
C140        C  0.35200748  0.23308192  0.48461438    -0.23600
C141        C  0.14742269  0.26559495  0.48456875    -0.23600
C142        C  0.14769796  0.23098555  0.48585964    -0.23600
C143        C  0.31044961  0.31145490  0.50274051    -0.19000
C144        C  0.18784504  0.30990624  0.50214549    -0.19000
C145        C  0.18914760  0.18819420  0.50627415    -0.19000
C146        C  0.31161212  0.18991786  0.50485030    -0.19000
H147        H  0.28099118  0.37102348  0.53231358     0.13900
H148        H  0.21437223  0.37011086  0.53211253     0.13900
H149        H  0.28536582  0.13152496  0.53826335     0.13900
H150        H  0.21862616  0.13060983  0.53919128     0.13900
H151        H  0.37235012  0.28351042  0.47601078     0.12200
H152        H  0.37288814  0.21701462  0.47695917     0.12200
H153        H  0.12654664  0.28123647  0.47626744     0.12200
H154        H  0.12712444  0.21475320  0.47859512     0.12200
H155        H  0.24973333  0.27926442  0.48673868     0.25500
H156        H  0.24975620  0.21960949  0.48862387     0.25500
C157        C  0.35787505  0.39210853  0.48345763    -0.14000
C158        C  0.38667992  0.38849243  0.50373010     0.08100
C159        C  0.39016195  0.35971994  0.52403266    -0.14000
C160        C  0.36513719  0.33505668  0.52419831    -0.14000
C161        C  0.33663070  0.33827601  0.50337619     0.08100
C162        C  0.33325977  0.36703479  0.48299040    -0.14000
H163        H  0.35477088  0.41401189  0.46745339     0.12100
H164        H  0.41201917  0.35656741  0.54011666     0.12100
H165        H  0.36808319  0.31330056  0.54042432     0.12100
H166        H  0.31159539  0.36997674  0.46662144     0.12100
C167        C  0.36000554  0.11046303  0.48205184    -0.14000
C168        C  0.38876563  0.11334494  0.50239959     0.08100
C169        C  0.39196672  0.14122552  0.52396587    -0.14000
C170        C  0.36657246  0.16582722  0.52530305    -0.14000
C171        C  0.33806814  0.16324185  0.50450700     0.08100
C172        C  0.33497485  0.13540313  0.48287478    -0.14000
H173        H  0.35718430  0.08916778  0.46515883     0.12100
H174        H  0.41381214  0.14364146  0.54014604     0.12100
H175        H  0.36919321  0.18701366  0.54235648     0.12100
H176        H  0.31322570  0.13311597  0.46655175     0.12100
C177        C  0.13990008  0.39029908  0.48169275    -0.14000
C178        C  0.11165580  0.38764509  0.50296959     0.08100
C179        C  0.10842463  0.35937021  0.52391370    -0.14000
C180        C  0.13324391  0.33418091  0.52376890    -0.14000
C181        C  0.16122890  0.33650859  0.50207999     0.08100
C182        C  0.16430342  0.36470773  0.48095153    -0.14000
H183        H  0.14272361  0.41184273  0.46519618     0.12100
H184        H  0.08694795  0.35704187  0.54072742     0.12100
H185        H  0.13068277  0.31286018  0.54058746     0.12100
H186        H  0.18570938  0.36691983  0.46403163     0.12100
C187        C  0.14394687  0.10622849  0.48685667    -0.14000
C188        C  0.11374704  0.11017550  0.50515512     0.08100
C189        C  0.10899765  0.13920901  0.52503723    -0.14000
C190        C  0.13381885  0.16409411  0.52618161    -0.14000
C191        C  0.16345570  0.16082414  0.50677716     0.08100
C192        C  0.16837094  0.13149776  0.48733216    -0.14000
H193        H  0.14820429  0.08404504  0.47138039     0.11000
H194        H  0.08614900  0.14254614  0.53982150     0.12100
H195        H  0.12970805  0.18617752  0.54182874     0.12100
H196        H  0.19098836  0.12837960  0.47216354     0.12100
C197        C  0.35385056  0.51734002  0.39716717    -0.14000
C198        C  0.38481157  0.50069890  0.39133956     0.08100
C199        C  0.39001283  0.48406732  0.36041436    -0.14000
C200        C  0.36737010  0.98170865  0.33248281    -0.14000
C201        C  0.33713770  0.99993161  0.33745190     0.08100
C202        C  0.33199011  0.01677389  0.36829901    -0.14000
H203        H  0.34926123  0.53056790  0.42070208     0.12100
H204        H  0.41351218  0.47080441  0.35535722     0.12100
H205        H  0.37175077  0.96807392  0.30914625     0.12100
H206        H  0.30899243  0.03109380  0.37273007     0.12100
C207        C  0.14198445  0.01608323  0.39263569    -0.14000
C208        C  0.10875005  0.50181745  0.38899927     0.08100
C209        C  0.10489031  0.48239435  0.35968047    -0.14000
C210        C  0.12993150  0.48228802  0.33491269    -0.14000
C211        C  0.16197600  0.99873854  0.33709553     0.08100
C212        C  0.16650059  0.01683939  0.36722733    -0.14000
H213        H  0.14604029  0.03037717  0.41556687     0.12100
H214        H  0.08289777  0.46668678  0.35632893     0.12100
H215        H  0.12693493  0.46654694  0.31277375     0.12100
H216        H  0.18901217  0.03169120  0.37099494     0.12100
C217        C  0.14125528  0.02015732  0.10695717    -0.14000
C218        C  0.11197409  0.00086593  0.11139130     0.08100
C219        C  0.10803701  0.98208262  0.14107543    -0.14000
C220        C  0.13302882  0.98235072  0.16585103    -0.14000
C221        C  0.16204309  0.00209247  0.16181447     0.08100
C222        C  0.16593955  0.02101826  0.13211950    -0.14000
H223        H  0.14472674  0.03501528  0.08431887     0.12100
H224        H  0.08140224  0.46877291  0.14913141     0.12100
H225        H  0.12971433  0.96716889  0.18828157     0.12100
H226        H  0.18805253  0.03651265  0.12850596     0.12100
C227        C  0.35606757  0.01920017  0.10622722    -0.14000
C228        C  0.38683202  0.00233257  0.11182554     0.08100
C229        C  0.39242579  0.98627959  0.14283288    -0.14000
C230        C  0.36749151  0.98668485  0.16771832    -0.14000
C231        C  0.33698666  0.00418455  0.16254535     0.08100
C232        C  0.33156759  0.02058535  0.13159890    -0.14000
H233        H  0.35125167  0.03185786  0.08250872     0.12100
H234        H  0.41347847  0.47237888  0.14983611     0.12100
H235        H  0.37200379  0.97327394  0.19106603     0.12100
H236        H  0.30828162  0.03432477  0.12705227     0.12100
C237        C  0.48429178  0.13176510  0.33315618    -0.14000
C238        C  0.50540572  0.15986241  0.33636566     0.08100
C239        C  0.02558358  0.16299084  0.36527793    -0.14000
C240        C  0.02435932  0.13866648  0.39072418    -0.14000
C241        C  0.50347364  0.11043841  0.38733185     0.08100
C242        C  0.48365635  0.10704893  0.35822460    -0.14000
H243        H  0.46816685  0.12909919  0.31130842     0.12100
H244        H  0.04206573  0.18444911  0.36821536     0.12100
H245        H  0.04004574  0.14165637  0.41285147     0.12100
H246        H  0.46715777  0.08561097  0.35521601     0.12100
C247        C  0.48001735  0.36456129  0.33673679    -0.14000
C248        C  0.49966154  0.33514239  0.34070855     0.08100
C249        C  0.01788349  0.33079005  0.37081430    -0.14000
C250        C  0.01666016  0.35537474  0.39621654    -0.14000
C251        C  0.49791082  0.38525009  0.39167265     0.08100
C252        C  0.47957056  0.38956752  0.36170012    -0.14000
H253        H  0.46527184  0.36833548  0.31407346     0.12100
H254        H  0.03331541  0.30844664  0.37452430     0.12100
H255        H  0.03111645  0.35144697  0.41904685     0.12100
H256        H  0.46459477  0.41217510  0.35772682     0.12100
C257        C  0.02145543  0.33451034  0.13560401    -0.14000
C258        C  0.50176126  0.33821952  0.16497326     0.08100
C259        C  0.48194189  0.36749875  0.16908133    -0.14000
C260        C  0.48222175  0.39279451  0.14459108    -0.14000
C261        C  0.50149854  0.38882452  0.11503506     0.08100
C262        C  0.02103456  0.35941278  0.11067636    -0.14000
H263        H  0.03708293  0.31225157  0.13197296     0.12100
H264        H  0.46624636  0.37075478  0.19130305     0.12100
H265        H  0.46672017  0.41512116  0.14835795     0.12100
H266        H  0.03626534  0.35588734  0.08816562     0.12100
C267        C  0.47841597  0.13500151  0.16520689    -0.14000
C268        C  0.49980021  0.16287598  0.16145886     0.08100
C269        C  0.01936506  0.16570968  0.13200418    -0.14000
C270        C  0.01776143  0.14101844  0.10687427    -0.14000
C271        C  0.49719099  0.11265583  0.11111417     0.08100
C272        C  0.47744477  0.10986332  0.14042957    -0.14000
H273        H  0.46278663  0.13255974  0.18753619     0.12100
H274        H  0.03606568  0.18693540  0.12862410     0.12100
H275        H  0.03325442  0.14363342  0.08447950     0.12100
H276        H  0.46111730  0.08837975  0.14401891     0.12100
N277        N  0.00085351  0.25113135  0.70035677    -0.37300
N278        N  0.99863331  0.30165553  0.75313173    -0.57900
N279        N  0.99851632  0.24881858  0.80332846    -0.37300
N280        N  0.99750297  0.19835586  0.75051333    -0.57900
C281        C  0.99238929  0.27928332  0.68308864     0.26300
C282        C  0.99083518  0.22444515  0.68169722     0.26300
C283        C  0.98864523  0.27585506  0.82183407     0.26300
C284        C  0.98922238  0.22095818  0.82049125     0.26300
C285        C  0.00756345  0.32097742  0.72661170     0.34900
C286        C  0.00533176  0.31979761  0.78113269     0.34900
C287        C  0.00563388  0.18021297  0.72274045     0.34900
C288        C  0.00555597  0.17896454  0.77731277     0.34900
C289        C  0.97646116  0.27046903  0.65328049    -0.22600
C290        C  0.97540523  0.23578072  0.65243886    -0.22600
C291        C  0.97252898  0.26507009  0.85095937    -0.22600
C292        C  0.97293624  0.23034451  0.85013043    -0.22600
C293        C  0.02042421  0.35140776  0.73777609    -0.23600
C294        C  0.01898856  0.35066909  0.77241216    -0.23600
C295        C  0.01937411  0.14933433  0.73189476    -0.23600
C296        C  0.01936707  0.14855472  0.76655401    -0.23600
C297        C  0.00098995  0.31243253  0.69269754    -0.19000
C298        C  0.99783070  0.19033636  0.68951939    -0.19000
C299        C  0.99762626  0.18753156  0.81102989    -0.19000
C300        C  0.99634623  0.30972241  0.81408196    -0.19000
H301        H  0.96685134  0.28727111  0.63402567     0.13900
H302        H  0.96485765  0.22064976  0.63238051     0.13900
H303        H  0.96198851  0.28057878  0.87094247     0.13900
H304        H  0.96275551  0.21389665  0.86932800     0.13900
H305        H  0.02936115  0.37217502  0.72259979     0.12200
H306        H  0.02669571  0.37072774  0.78918376     0.12200
H307        H  0.02813551  0.12932667  0.71536911     0.12200
H308        H  0.02810195  0.12780142  0.78199369     0.12200
H309        H  0.01626027  0.25015609  0.72159906     0.25500
H310        H  0.01440176  0.24925881  0.78233355     0.25500
O311        O  0.49996063  0.09646678  0.55483468    -0.87200
O312        O  0.50191139  0.40444074  0.55832480    -0.87300
O313        O  0.44454911  0.99955659  0.59657515    -0.89000
O314        O  0.05409810  0.99817651  0.59686979    -0.87800
O315        O  0.09515010  0.99806014  0.55577077    -0.87400
O316        O  0.40334712  0.50276753  0.55826514    -0.88700
O317        O  0.49938524  0.44587132  0.59882724    -0.87200
O318        O  0.49698030  0.05602507  0.59610219    -0.86800
Zr319      Zr  0.49942916  0.00057948  0.56888001     2.84300
O320        O  0.03331016  0.46587096  0.53658500    -1.08800
O321        O  0.46593045  0.03484110  0.53439891    -1.09500
C322        C  0.49795516  0.08698950  0.58594135     1.05900
C323        C  0.50109211  0.41476343  0.58925497     1.05900
C324        C  0.41358854  0.00083220  0.58651336     1.08900
C325        C  0.08519608  0.99767980  0.58688578     1.06600
H326        H  0.45069993  0.45235768  0.55150433     0.32200
O327        O  0.46468258  0.46616860  0.53721182    -1.29700
H328        H  0.04826994  0.04764547  0.54925623     0.31900
O329        O  0.03425591  0.03388587  0.53500034    -1.31400
O330        O  0.49759607  0.40342083  0.94828876    -0.87200
O331        O  0.50115038  0.09378515  0.94419623    -0.88700
O332        O  0.40286090  0.44423122  0.00068344    -0.87200
O333        O  0.09404930  0.44537261  0.00279157    -0.87300
O334        O  0.09492771  0.05390046  0.00187506    -0.87000
O335        O  0.40319810  0.05413780  0.99935625    -0.86800
O336        O  0.44213135  0.49658631  0.90654564    -0.87200
O337        O  0.05192542  0.49795281  0.90564592    -0.86600
O338        O  0.40143992  0.49879993  0.94794998    -0.87700
O339        O  0.09304426  0.50076426  0.94633101    -0.86900
O340        O  0.44431493  0.40353143  0.00094923    -0.87300
O341        O  0.44385707  0.09504848  0.00019057    -0.87000
O342        O  0.05374384  0.09494974  0.00443932    -0.86600
O343        O  0.05337705  0.40447356  0.00007649    -0.87000
O344        O  0.49472619  0.44367912  0.90683759    -0.87300
O345        O  0.49789967  0.05257616  0.90351324    -0.88700
Zr346      Zr  0.49843931  0.43203460  0.00256252     2.83100
Zr347      Zr  0.49904268  0.06722918  0.99961905     2.83500
Zr348      Zr  0.42949485  0.49972406  0.00238342     2.84100
Zr349      Zr  0.06574256  0.50007234  0.00159643     2.83400
Zr350      Zr  0.49716442  0.49897044  0.93374838     2.84200
O351        O  0.03309034  0.03304822  0.96510534    -1.09300
O352        O  0.46378159  0.46542748  0.96853570    -1.08800
C353        C  0.49560476  0.41281453  0.91719433     1.05900
C354        C  0.49954953  0.08364562  0.91321732     1.08500
C355        C  0.41308697  0.41314262  0.00014499     1.06100
C356        C  0.08428605  0.41443900  0.00108188     1.06400
C357        C  0.08485576  0.08482972  0.00463887     1.06000
C358        C  0.41282723  0.08515404  0.99981315     1.05600
C359        C  0.41114741  0.49719157  0.91685889     1.06000
C360        C  0.08298175  0.49946021  0.91535907     1.05500
H361        H  0.45088460  0.04727410  0.95161810     0.32200
O362        O  0.46494895  0.03318816  0.96573244    -1.30400
H363        H  0.04620522  0.45131232  0.95356595     0.32200
O364        O  0.03213037  0.46548123  0.96770343    -1.31700
N365        N  0.24905260  0.00336322  0.69944212    -0.37300
N366        N  0.30077587  0.00533999  0.75064352    -0.57900
N367        N  0.24933111  0.00564439  0.80253312    -0.37300
N368        N  0.19757356  0.00033312  0.75119040    -0.57900
C369        C  0.27692637  0.99435063  0.68168057     0.26300
C370        C  0.22198359  0.99226034  0.68204487     0.26300
C371        C  0.27721892  0.99766273  0.82046689     0.26300
C372        C  0.22234160  0.99560717  0.82077093     0.26300
C373        C  0.31940843  0.01273662  0.72310299     0.34900
C374        C  0.31950870  0.01390493  0.77766929     0.34900
C375        C  0.17852059  0.00768281  0.72395856     0.34900
C376        C  0.17875379  0.00864020  0.77844724     0.34900
C377        C  0.26749700  0.97697835  0.65285134    -0.22600
C378        C  0.23277670  0.97560540  0.65311632    -0.22600
C379        C  0.26783545  0.98212081  0.85037160    -0.22600
C380        C  0.23310551  0.98094788  0.85061530    -0.22600
C381        C  0.34992769  0.02669566  0.73263445    -0.23600
C382        C  0.35001475  0.02736951  0.76729716    -0.23600
C383        C  0.14769124  0.02124647  0.73396236    -0.23600
C384        C  0.14776870  0.02166212  0.76859654    -0.23600
C385        C  0.31033673  0.00353432  0.68994199    -0.19000
C386        C  0.18794679  0.99940546  0.69056499    -0.19000
C387        C  0.18837391  0.00174516  0.81190929    -0.19000
C388        C  0.31059420  0.00618223  0.81126661    -0.19000
H389        H  0.28389038  0.96657169  0.63349698     0.13900
H390        H  0.21725720  0.96397137  0.63400029     0.13900
H391        H  0.28424614  0.97282154  0.87010778     0.13900
H392        H  0.21756692  0.97068482  0.87056265     0.13900
H393        H  0.37029913  0.03485592  0.71640259     0.12200
H394        H  0.37046180  0.03609988  0.78302430     0.12200
H395        H  0.12715037  0.02965945  0.71806044     0.12200
H396        H  0.12730871  0.03032815  0.78466931     0.12200
H397        H  0.24834686  0.01970897  0.72005514     0.25500
H398        H  0.24854613  0.02060508  0.78097472     0.25500
N399        N  0.24751455  0.30021037  0.99833360    -0.37300
N400        N  0.29996505  0.24852700  0.00033035    -0.57900
N401        N  0.24673752  0.19768604  0.00818927    -0.37300
N402        N  0.19495748  0.24904159  0.00797135    -0.57900
C403        C  0.27437641  0.31835227  0.98742168     0.26300
C404        C  0.21933303  0.31827017  0.99088817     0.26300
C405        C  0.27501665  0.17956234  0.01487394     0.26300
C406        C  0.22024638  0.17980505  0.01995382     0.26300
C407        C  0.31732647  0.27407655  0.98610643     0.34900
C408        C  0.31574975  0.21974720  0.99065553     0.34900
C409        C  0.17465142  0.27645757  0.00585591     0.34900
C410        C  0.17450331  0.22210975  0.01156959     0.34900
C411        C  0.26276745  0.34724610  0.97140012    -0.22600
C412        C  0.22828454  0.34767069  0.97441865    -0.22600
C413        C  0.26644165  0.15025364  0.03180484    -0.22600
C414        C  0.23181335  0.15023373  0.03463689    -0.22600
C415        C  0.34270645  0.26118019  0.96550282    -0.23600
C416        C  0.34236890  0.22683138  0.96919562    -0.23600
C417        C  0.14115938  0.26692114  0.00904577    -0.23600
C418        C  0.14102454  0.23253980  0.01156836    -0.23600
C419        C  0.30899151  0.30868575  0.99004452    -0.19000
C420        C  0.18554166  0.30958136  0.99861105    -0.19000
C421        C  0.18577079  0.18848994  0.01622775    -0.19000
C422        C  0.30766915  0.18737369  0.00275143    -0.19000
H423        H  0.27746335  0.36573821  0.95786764     0.13900
H424        H  0.21157524  0.36696283  0.96453139     0.13900
H425        H  0.28325127  0.13049019  0.04049618     0.13900
H426        H  0.21678991  0.13063684  0.04610392     0.13900
H427        H  0.35892211  0.27486553  0.94839989     0.12200
H428        H  0.35913196  0.20901701  0.95675726     0.12200
H429        H  0.11880660  0.28272540  0.00873714     0.12200
H430        H  0.11857070  0.21739173  0.01355264     0.12200
H431        H  0.24843971  0.27851239  0.01298271     0.25500
H432        H  0.24545931  0.21877226  0.99263968     0.25500
C433        C  0.39612392  0.35247557  0.99397321    -0.14000
C434        C  0.38702603  0.38643100  0.99853138     0.08100
C435        C  0.35280330  0.39437381  0.00307417    -0.14000
C436        C  0.32829963  0.36924903  0.00180996    -0.14000
C437        C  0.33652472  0.33541923  0.99339477     0.08100
C438        C  0.37148590  0.32742865  0.99236373    -0.14000
H439        H  0.42244113  0.34501804  0.99214119     0.12100
H440        H  0.34487660  0.41999259  0.00860603     0.12100
H441        H  0.30300237  0.37681649  0.00872132     0.12100
H442        H  0.38083326  0.30194433  0.99169913     0.12100
C443        C  0.35406019  0.10456733  0.98663862    -0.14000
C444        C  0.38609811  0.11132545  0.00011938     0.08100
C445        C  0.39215377  0.14308788  0.01445801    -0.14000
C446        C  0.36649097  0.16740065  0.01585775    -0.14000
C447        C  0.33451189  0.16078108  0.00218194     0.08100
C448        C  0.32865624  0.12921479  0.98727258    -0.14000
H449        H  0.34878712  0.08037200  0.97517119     0.12100
H450        H  0.41653701  0.14890821  0.02520433     0.12100
H451        H  0.37160181  0.19151923  0.02755828     0.12100
H452        H  0.30442332  0.12368638  0.97604781     0.12100
C453        C  0.10856318  0.36220768  0.97585645    -0.14000
C454        C  0.11055309  0.38826163  0.99974857     0.08100
C455        C  0.13771853  0.38908496  0.02228832    -0.14000
C456        C  0.16204715  0.36344731  0.02171361    -0.14000
C457        C  0.15992719  0.33713594  0.99809096     0.08100
C458        C  0.13353909  0.33720660  0.97452192    -0.14000
H459        H  0.08792329  0.36149126  0.95799867     0.12100
H460        H  0.13960866  0.40907660  0.04083772     0.12100
H461        H  0.18243673  0.36391500  0.03985449     0.12100
H462        H  0.13191964  0.31747734  0.95567428     0.12100
C463        C  0.13890184  0.11105392  0.98686622    -0.14000
C464        C  0.11109807  0.11054704  0.00879658     0.08100
C465        C  0.10891786  0.13435363  0.03503106    -0.14000
C466        C  0.13397609  0.15878753  0.03881636    -0.14000
C467        C  0.16076766  0.16057132  0.01553788     0.08100
C468        C  0.16328419  0.13609581  0.98995311    -0.14000
H469        H  0.14119039  0.09266961  0.96671536     0.11000
H470        H  0.08801317  0.13381681  0.05270011     0.12100
H471        H  0.13198459  0.17687144  0.05925537     0.12100
H472        H  0.18387472  0.13682122  0.97191169     0.12100
C473        C  0.35488770  0.51541557  0.89542780    -0.14000
C474        C  0.38455427  0.49627508  0.89107688     0.08100
C475        C  0.38857196  0.47642586  0.86196491    -0.14000
C476        C  0.36656113  0.98546090  0.83262351    -0.14000
C477        C  0.33735635  0.00523391  0.83747260     0.08100
C478        C  0.33333155  0.02336944  0.86771832    -0.14000
H479        H  0.35137001  0.53100850  0.91765877     0.12100
H480        H  0.41111690  0.46118721  0.85831281     0.12100
H481        H  0.36999972  0.97097437  0.80965059     0.12100
H482        H  0.31109261  0.03892919  0.87186427     0.12100
C483        C  0.13883344  0.02093709  0.89155040    -0.14000
C484        C  0.10908929  0.49980232  0.88884169     0.08100
C485        C  0.10508933  0.48065483  0.85930612    -0.14000
C486        C  0.13000990  0.48078080  0.83428590    -0.14000
C487        C  0.16188522  0.00058468  0.83842843     0.08100
C488        C  0.16412459  0.02140339  0.86697693    -0.14000
H489        H  0.14098490  0.03725542  0.91338243     0.12100
H490        H  0.08299010  0.46511465  0.85589134     0.12100
H491        H  0.12685464  0.46523134  0.81203516     0.12100
H492        H  0.18535671  0.03815603  0.87007426     0.12100
C493        C  0.14240972  0.01343710  0.60750266    -0.14000
C494        C  0.11155478  0.99719740  0.61314780     0.08100
C495        C  0.10599133  0.98110937  0.64419878    -0.14000
C496        C  0.13104112  0.98100643  0.66899724    -0.14000
C497        C  0.16160510  0.99809759  0.66372009     0.08100
C498        C  0.16691532  0.01436853  0.63271533    -0.14000
H499        H  0.14722420  0.02623726  0.58387704     0.12100
H500        H  0.08522238  0.46360080  0.64686379     0.12100
H501        H  0.12645222  0.96780306  0.69244244     0.12100
H502        H  0.19004394  0.02800732  0.62807012     0.12100
C503        C  0.35650564  0.01812928  0.60729554    -0.14000
C504        C  0.38707190  0.00084714  0.61268201     0.08100
C505        C  0.39217587  0.98391016  0.64335772    -0.14000
C506        C  0.36704849  0.98422594  0.66818535    -0.14000
C507        C  0.33681022  0.00230241  0.66317370     0.08100
C508        C  0.33179065  0.01921487  0.63248068    -0.14000
H509        H  0.35205071  0.03147596  0.58389292     0.12100
H510        H  0.41420042  0.46598223  0.64763705     0.12100
H511        H  0.37126120  0.97053748  0.69143352     0.12100
H512        H  0.30873022  0.03337573  0.62808904     0.12100
C513        C  0.47932713  0.13096287  0.83287588    -0.14000
C514        C  0.49786113  0.16071534  0.83728653     0.08100
C515        C  0.01696421  0.16480810  0.86677317    -0.14000
C516        C  0.01740534  0.13976043  0.89147659    -0.14000
C517        C  0.49929168  0.10983878  0.88685804     0.08100
C518        C  0.48038393  0.10554328  0.85725391    -0.14000
H519        H  0.46411219  0.12742265  0.81050583     0.12100
H520        H  0.03160451  0.18743068  0.87061260     0.12100
H521        H  0.03228267  0.14357520  0.91402860     0.12100
H522        H  0.46589249  0.08283693  0.85330599     0.12100
C523        C  0.47519117  0.36500528  0.83732127    -0.14000
C524        C  0.49474781  0.33556885  0.84132303     0.08100
C525        C  0.01358064  0.33125135  0.87096964    -0.14000
C526        C  0.01322374  0.35610292  0.89598198    -0.14000
C527        C  0.49461584  0.38602209  0.89143674     0.08100
C528        C  0.47545298  0.39022257  0.86198803    -0.14000
H529        H  0.46015589  0.36864585  0.81482149     0.12100
H530        H  0.02893203  0.30882253  0.87450572     0.12100
H531        H  0.02825776  0.35236836  0.91847158     0.12100
H532        H  0.46056347  0.41291250  0.85816325     0.12100
C533        C  0.02166144  0.33503480  0.63733061    -0.14000
C534        C  0.50171121  0.33917604  0.66645691     0.08100
C535        C  0.48191192  0.36849065  0.67011904    -0.14000
C536        C  0.48225461  0.39335294  0.64523944    -0.14000
C537        C  0.50173934  0.38894078  0.61588447     0.08100
C538        C  0.02141919  0.35957080  0.61207074    -0.14000
H539        H  0.03721608  0.31266477  0.63409808     0.12100
H540        H  0.46602280  0.37199694  0.69216866     0.12100
H541        H  0.46666656  0.41569161  0.64854916     0.12100
H542        H  0.03683382  0.35578568  0.58972595     0.12100
C543        C  0.47757366  0.13491488  0.66638567    -0.14000
C544        C  0.49663216  0.16438309  0.66222701     0.08100
C545        C  0.01521632  0.16862492  0.63229334    -0.14000
C546        C  0.01506621  0.14375380  0.60722427    -0.14000
C547        C  0.49695483  0.11379765  0.61192657     0.08100
C548        C  0.47809301  0.10966575  0.64168534    -0.14000
H549        H  0.46264171  0.13127914  0.68901860     0.12100
H550        H  0.03020788  0.19103047  0.62853430     0.12100
H551        H  0.02985595  0.14753522  0.58452190     0.12100
H552        H  0.46353657  0.08701751  0.64570553     0.12100
N553        N  0.00260429  0.75091813  0.20039672    -0.37300
N554        N  0.99824058  0.80147295  0.25249245    -0.57900
N555        N  0.00223983  0.74840897  0.30346248    -0.37300
N556        N  0.00276803  0.69791848  0.25123950    -0.57900
C557        C  0.99352730  0.77856907  0.18253777     0.26300
C558        C  0.99385994  0.72365617  0.18192588     0.26300
C559        C  0.99083293  0.77507708  0.32163139     0.26300
C560        C  0.99444861  0.72028110  0.32103444     0.26300
C561        C  0.00581744  0.82137450  0.22590516     0.34900
C562        C  0.00400499  0.81998438  0.28048262     0.34900
C563        C  0.01017243  0.67975622  0.22329035     0.34900
C564        C  0.01139511  0.67852456  0.27791550     0.34900
C565        C  0.97854977  0.76881753  0.15255275    -0.22600
C566        C  0.97862573  0.73413025  0.15221920    -0.22600
C567        C  0.97536044  0.76382495  0.35089894    -0.22600
C568        C  0.97756091  0.72919252  0.35048640    -0.22600
C569        C  0.01667266  0.85258181  0.23707165    -0.23600
C570        C  0.01543681  0.85173354  0.27168617    -0.23600
C571        C  0.02392598  0.64878865  0.23220018    -0.23600
C572        C  0.02486700  0.64807443  0.26684641    -0.23600
C573        C  0.00049962  0.81221991  0.19185955    -0.19000
C574        C  0.00180338  0.68980785  0.19013752    -0.19000
C575        C  0.00397275  0.68704567  0.31181946    -0.19000
C576        C  0.99655801  0.80924869  0.31361830    -0.19000
H577        H  0.96874498  0.78500854  0.13287941     0.13900
H578        H  0.96895856  0.71844189  0.13214006     0.13900
H579        H  0.96389962  0.77902109  0.37062153     0.13900
H580        H  0.96791365  0.71251632  0.36975653     0.13900
H581        H  0.02443543  0.87385095  0.22195385     0.12200
H582        H  0.02206560  0.87222606  0.28840252     0.12200
H583        H  0.03210142  0.62866488  0.21551883     0.12200
H584        H  0.03389866  0.62727904  0.28205892     0.12200
H585        H  0.01758995  0.75069667  0.22193876     0.25500
H586        H  0.01793275  0.74957158  0.28234909     0.25500
O587        O  0.49856531  0.59668445  0.05537558    -0.87200
O588        O  0.50303589  0.90366971  0.05597970    -0.87300
O589        O  0.44233445  0.50121152  0.09789338    -0.89000
O590        O  0.05198402  0.49935109  0.09802731    -0.87800
O591        O  0.09293934  0.50120518  0.05687099    -0.87400
O592        O  0.40321349  0.00212403  0.05454528    -0.88700
O593        O  0.49978745  0.94508800  0.09648767    -0.87200
O594        O  0.49680113  0.55621812  0.09672678    -0.86800
Zr595      Zr  0.49733737  0.50059596  0.07004828     2.84300
O596        O  0.03373943  0.96522364  0.03446261    -1.08800
O597        O  0.46325503  0.53451788  0.03579821    -1.09500
C598        C  0.49785608  0.58714014  0.08649765     1.05900
C599        C  0.50180042  0.91394857  0.08697212     1.05900
C600        C  0.41121302  0.50232406  0.08823539     1.08900
C601        C  0.08304859  0.50016652  0.08799741     1.06600
H602        H  0.45108783  0.95146339  0.04892326     0.32200
O603        O  0.46507729  0.96533041  0.03464924    -1.29700
H604        H  0.04559389  0.54838526  0.04971887     0.31900
O605        O  0.03158345  0.53427243  0.03579535    -1.31400
O606        O  0.49830449  0.90300345  0.44751858    -0.87200
O607        O  0.50225409  0.59475794  0.44686573    -0.88700
O608        O  0.40354223  0.94660378  0.50123958    -0.87200
O609        O  0.09474563  0.94390915  0.49980574    -0.87300
O610        O  0.09545084  0.55347438  0.50129619    -0.87000
O611        O  0.40340288  0.55580908  0.50164660    -0.86800
O612        O  0.44468382  0.99729172  0.40453102    -0.87200
O613        O  0.05462436  0.99674598  0.40456301    -0.86600
O614        O  0.40380405  0.00003755  0.44566697    -0.87700
O615        O  0.09548983  0.99985326  0.44546631    -0.86900
O616        O  0.44439044  0.90533233  0.50208510    -0.87300
O617        O  0.44465028  0.59619792  0.50252906    -0.87000
O618        O  0.05457930  0.59479427  0.50422535    -0.86600
O619        O  0.05357225  0.90344584  0.49741504    -0.87000
O620        O  0.49701380  0.94319998  0.40589764    -0.87300
O621        O  0.49869914  0.55338024  0.40642732    -0.88700
Zr622      Zr  0.49941385  0.93217940  0.50131324     2.83100
Zr623      Zr  0.49938970  0.56765623  0.50190723     2.83500
Zr624      Zr  0.43179291  0.00095575  0.50048069     2.84100
Zr625      Zr  0.06784538  0.99917342  0.50061688     2.83400
Zr626      Zr  0.49957842  0.99889509  0.43238518     2.84200
O627        O  0.03250037  0.53289698  0.46743306    -1.09300
O628        O  0.46531328  0.96574579  0.46676418    -1.08800
C629        C  0.49709713  0.91234637  0.41640304     1.05900
C630        C  0.50109309  0.58449226  0.41592212     1.08500
C631        C  0.41329553  0.91543874  0.50202111     1.06100
C632        C  0.08455027  0.91315943  0.49785444     1.06400
C633        C  0.08562651  0.58451413  0.50320185     1.06000
C634        C  0.41352581  0.58669824  0.50181603     1.05600
C635        C  0.41358364  0.99830355  0.41454112     1.06000
C636        C  0.08567032  0.99813924  0.41442531     1.05500
H637        H  0.45059690  0.54817560  0.45424358     0.32200
O638        O  0.46450797  0.53399693  0.46835885    -1.30400
H639        H  0.04755066  0.95087942  0.45249026     0.32200
O640        O  0.03370953  0.96519543  0.46668538    -1.31700
N641        N  0.24735115  0.50385357  0.20124742    -0.37300
N642        N  0.29875568  0.50252414  0.25358370    -0.57900
N643        N  0.24656911  0.50281708  0.30429647    -0.37300
N644        N  0.19521645  0.50043976  0.25187276    -0.57900
C645        C  0.27554018  0.49593092  0.18354108     0.26300
C646        C  0.22058071  0.49369840  0.18278743     0.26300
C647        C  0.27376523  0.49342025  0.32266215     0.26300
C648        C  0.21881204  0.49353863  0.32167026     0.26300
C649        C  0.31716585  0.51244854  0.22666696     0.34900
C650        C  0.31678775  0.51064863  0.28130201     0.34900
C651        C  0.17666003  0.50836210  0.22445606     0.34900
C652        C  0.17643817  0.50941465  0.27893489     0.34900
C653        C  0.26664604  0.48012833  0.15363118    -0.22600
C654        C  0.23191156  0.47867983  0.15318049    -0.22600
C655        C  0.26313783  0.47742898  0.35189388    -0.22600
C656        C  0.22833154  0.47762732  0.35132530    -0.22600
C657        C  0.34682320  0.52735626  0.23731995    -0.23600
C658        C  0.34658169  0.52621668  0.27199025    -0.23600
C659        C  0.14611158  0.52275771  0.23410768    -0.23600
C660        C  0.14596816  0.52342524  0.26873996    -0.23600
C661        C  0.30868604  0.50514897  0.19281197    -0.19000
C662        C  0.18639980  0.50041268  0.19109892    -0.19000
C663        C  0.18541136  0.50198178  0.31248492    -0.19000
C664        C  0.30750553  0.50170277  0.31456509    -0.19000
H665        H  0.28338662  0.47091026  0.13398062     0.13900
H666        H  0.21676298  0.46819587  0.13311733     0.13900
H667        H  0.27875816  0.46721647  0.37181969     0.13900
H668        H  0.21191973  0.46766353  0.37072615     0.13900
H669        H  0.36672005  0.53763088  0.22174820     0.12200
H670        H  0.36618029  0.53557585  0.28841257     0.12200
H671        H  0.12600308  0.53172981  0.21794865     0.12200
H672        H  0.12563485  0.53279542  0.28457903     0.12200
H673        H  0.24640685  0.51909935  0.22267096     0.25500
H674        H  0.24672227  0.51853813  0.28327531     0.25500
N675        N  0.24772515  0.80186649  0.50086227    -0.37300
N676        N  0.30060195  0.75075260  0.50099266    -0.57900
N677        N  0.24835966  0.69831354  0.50176050    -0.37300
N678        N  0.19599423  0.74867047  0.50205532    -0.57900
C679        C  0.27467338  0.82072824  0.49158931     0.26300
C680        C  0.21973912  0.81903119  0.49111901     0.26300
C681        C  0.27659873  0.68037213  0.50884436     0.26300
C682        C  0.22173696  0.67915047  0.51085834     0.26300
C683        C  0.31838398  0.77754681  0.48998459     0.34900
C684        C  0.31771557  0.72305036  0.49036485     0.34900
C685        C  0.17522930  0.77570050  0.50006411     0.34900
C686        C  0.17592017  0.72125630  0.50231417     0.34900
C687        C  0.26341361  0.84899692  0.47428342    -0.22600
C688        C  0.22889140  0.84852926  0.47502616    -0.22600
C689        C  0.26785112  0.64973889  0.52312046    -0.22600
C690        C  0.23318436  0.64883689  0.52404997    -0.22600
C691        C  0.34541465  0.76663465  0.47034487    -0.23600
C692        C  0.34557795  0.73211990  0.47145186    -0.23600
C693        C  0.14183328  0.76542060  0.49961438    -0.23600
C694        C  0.14232703  0.73097181  0.50009756    -0.23600
C695        C  0.30917065  0.81166984  0.49577015    -0.19000
C696        C  0.18585760  0.80929109  0.49591831    -0.19000
C697        C  0.18735525  0.68772172  0.50653271    -0.19000
C698        C  0.30963754  0.68974458  0.49943142    -0.19000
H699        H  0.27837287  0.86731135  0.46081027     0.13900
H700        H  0.21234572  0.86697006  0.46341201     0.13900
H701        H  0.28462242  0.62976454  0.53139935     0.13900
H702        H  0.21810018  0.62820336  0.53339465     0.13900
H703        H  0.36268360  0.78186761  0.45579084     0.12200
H704        H  0.36359663  0.71553806  0.45906396     0.12200
H705        H  0.11926628  0.78085285  0.49817673     0.12200
H706        H  0.12026534  0.71511398  0.49933870     0.12200
H707        H  0.24822931  0.78009673  0.51550145     0.25500
H708        H  0.24751148  0.72050460  0.48780698     0.25500
C709        C  0.39572646  0.85491596  0.50318291    -0.14000
C710        C  0.38688303  0.88919425  0.50303240     0.08100
C711        C  0.35261546  0.89796649  0.50542875    -0.14000
C712        C  0.32785076  0.87306872  0.50539813    -0.14000
C713        C  0.33618846  0.83862667  0.50027615     0.08100
C714        C  0.37086727  0.83017501  0.50295230    -0.14000
H715        H  0.42195880  0.84701439  0.50376217     0.12100
H716        H  0.34481817  0.92409632  0.50785164     0.12100
H717        H  0.30234029  0.88143500  0.51023893     0.12100
H718        H  0.37952686  0.80452569  0.50568755     0.12100
C719        C  0.35749618  0.60817713  0.48244302    -0.14000
C720        C  0.38736136  0.61328756  0.50068489     0.08100
C721        C  0.39207116  0.64402802  0.51758054    -0.14000
C722        C  0.36688415  0.66888365  0.51702361    -0.14000
C723        C  0.33688435  0.66368061  0.49899450     0.08100
C724        C  0.33270114  0.63335782  0.48119245    -0.14000
H725        H  0.35352794  0.58485363  0.46880681     0.12100
H726        H  0.41489858  0.64850849  0.53182882     0.12100
H727        H  0.37060974  0.69206870  0.53096239     0.12100
H728        H  0.31000288  0.62904182  0.46669197     0.12100
C729        C  0.11100996  0.86325610  0.47016587    -0.14000
C730        C  0.11055706  0.88702027  0.49642192     0.08100
C731        C  0.13521715  0.88584290  0.52158083    -0.14000
C732        C  0.15960594  0.86041998  0.52120010    -0.14000
C733        C  0.15997413  0.83634133  0.49526914     0.08100
C734        C  0.13611355  0.83836643  0.46921549    -0.14000
H735        H  0.09226192  0.86425611  0.45033791     0.12100
H736        H  0.13508723  0.90416467  0.54189997     0.12100
H737        H  0.17811414  0.85932142  0.54124014     0.12100
H738        H  0.13661498  0.82031883  0.44866504     0.12100
C739        C  0.13782563  0.61075449  0.48030629    -0.14000
C740        C  0.11207386  0.61025313  0.50468499     0.08100
C741        C  0.11194250  0.63429161  0.53071085    -0.14000
C742        C  0.13713357  0.65874272  0.53217914    -0.14000
C743        C  0.16211868  0.66014366  0.50699054     0.08100
C744        C  0.16247585  0.63576217  0.48124801    -0.14000
H745        H  0.13834524  0.59230117  0.46011446     0.11000
H746        H  0.09252103  0.63391941  0.55001969     0.12100
H747        H  0.13673455  0.67708590  0.55246304     0.12100
H748        H  0.18160146  0.63642437  0.46165657     0.12100
C749        C  0.35647296  0.01546871  0.39360753    -0.14000
C750        C  0.38705670  0.99803795  0.38830131     0.08100
C751        C  0.39226285  0.98110402  0.35749561    -0.14000
C752        C  0.36465373  0.48372265  0.33596886    -0.14000
C753        C  0.33389862  0.50085822  0.34145078     0.08100
C754        C  0.32879440  0.51772486  0.37232489    -0.14000
H755        H  0.35185331  0.02886640  0.41703858     0.12100
H756        H  0.41546264  0.96716737  0.35288330     0.12100
H757        H  0.36912172  0.47021324  0.31257801     0.12100
H758        H  0.30547716  0.53139987  0.37710152     0.12100
C759        C  0.13752401  0.52184682  0.39287597    -0.14000
C760        C  0.11208557  0.99787646  0.38805031     0.08100
C761        C  0.10748928  0.97978725  0.35791761    -0.14000
C762        C  0.13241157  0.97986634  0.33284457    -0.14000
C763        C  0.15878103  0.50221187  0.33877893     0.08100
C764        C  0.16225997  0.52227027  0.36775074    -0.14000
H765        H  0.14069813  0.53732937  0.41517767     0.12100
H766        H  0.08478896  0.96527758  0.35394010     0.12100
H767        H  0.12857291  0.96535148  0.31001559     0.12100
H768        H  0.18421316  0.53806250  0.37092574     0.12100
C769        C  0.13989448  0.51705344  0.10898018    -0.14000
C770        C  0.10944910  0.49991708  0.11421687     0.08100
C771        C  0.10456631  0.48240333  0.14458941    -0.14000
C772        C  0.12989200  0.48171231  0.16908368    -0.14000
C773        C  0.16012420  0.49946791  0.16417964     0.08100
C774        C  0.16477676  0.51720453  0.13389134    -0.14000
H775        H  0.14415833  0.53094290  0.08587385     0.12100
H776        H  0.08583630  0.96675458  0.14485375     0.12100
H777        H  0.12577378  0.46756774  0.19206167     0.12100
H778        H  0.18761682  0.53143014  0.12963344     0.12100
C779        C  0.35492003  0.52168957  0.11028073    -0.14000
C780        C  0.38512637  0.50352221  0.11496841     0.08100
C781        C  0.39046845  0.48669881  0.14566547    -0.14000
C782        C  0.36576826  0.48736866  0.17091908    -0.14000
C783        C  0.33557117  0.50558700  0.16635175     0.08100
C784        C  0.33058219  0.52310927  0.13593470    -0.14000
H785        H  0.35035735  0.53516261  0.08697110     0.12100
H786        H  0.41583242  0.97281098  0.14757169     0.12100
H787        H  0.37006447  0.47332376  0.19393532     0.12100
H788        H  0.30761347  0.53753930  0.13191793     0.12100
C789        C  0.48662142  0.62992689  0.33325227    -0.14000
C790        C  0.50414312  0.66019518  0.33826925     0.08100
C791        C  0.02089160  0.66524317  0.36909848    -0.14000
C792        C  0.01964601  0.64082696  0.39449587    -0.14000
C793        C  0.50243555  0.61043123  0.38921210     0.08100
C794        C  0.48625176  0.60509514  0.35821079    -0.14000
H795        H  0.47294675  0.62560053  0.31005021     0.12100
H796        H  0.03466090  0.68828946  0.37361544     0.12100
H797        H  0.03250013  0.64552793  0.41810638     0.12100
H798        H  0.47255999  0.58202711  0.35357901     0.12100
C799        C  0.47368482  0.86312633  0.33842560    -0.14000
C800        C  0.49499029  0.83477577  0.34111427     0.08100
C801        C  0.01591462  0.83145204  0.36946409    -0.14000
C802        C  0.01608757  0.85644373  0.39433651    -0.14000
C803        C  0.49586052  0.88545350  0.39085879     0.08100
C804        C  0.47446325  0.88851164  0.36288614    -0.14000
H805        H  0.45701816  0.86589666  0.31698030     0.12100
H806        H  0.03254900  0.80979659  0.37198384     0.12100
H807        H  0.03272510  0.85359967  0.41580475     0.12100
H808        H  0.45825415  0.91044883  0.36008486     0.12100
C809        C  0.02159208  0.83433796  0.13618475    -0.14000
C810        C  0.50121949  0.83865503  0.16505307     0.08100
C811        C  0.48123687  0.86795583  0.16794704    -0.14000
C812        C  0.48205157  0.89265979  0.14285000    -0.14000
C813        C  0.50203705  0.88811544  0.11381559     0.08100
C814        C  0.02169832  0.85864859  0.11060869    -0.14000
H815        H  0.03730534  0.81201901  0.13341646     0.12100
H816        H  0.46491640  0.87166750  0.18964520     0.12100
H817        H  0.46641157  0.91501749  0.14574983     0.12100
H818        H  0.03745486  0.85465163  0.08854098     0.12100
C819        C  0.48053161  0.63489687  0.16732914    -0.14000
C820        C  0.50047103  0.66371136  0.16310307     0.08100
C821        C  0.01915248  0.66747945  0.13314776    -0.14000
C822        C  0.01784457  0.64286231  0.10788086    -0.14000
C823        C  0.49848264  0.61370000  0.11254547     0.08100
C824        C  0.47992565  0.60990121  0.14249302    -0.14000
H825        H  0.46560344  0.63167394  0.19002816     0.12100
H826        H  0.03480523  0.68943673  0.12942103     0.12100
H827        H  0.03252815  0.64623095  0.08503596     0.12100
H828        H  0.46458926  0.58776799  0.14647796     0.12100
N829        N  0.00202930  0.75060208  0.69869186    -0.37300
N830        N  0.00069718  0.80092044  0.75082826    -0.57900
N831        N  0.00122626  0.74784923  0.80181619    -0.37300
N832        N  0.99875843  0.69762925  0.74982086    -0.57900
C833        C  0.99469339  0.77868809  0.68077026     0.26300
C834        C  0.99167040  0.72394345  0.68031495     0.26300
C835        C  0.99130280  0.77511550  0.81992062     0.26300
C836        C  0.99206382  0.72024525  0.81950864     0.26300
C837        C  0.01044288  0.81993724  0.72432172     0.34900
C838        C  0.00837726  0.81861286  0.77885576     0.34900
C839        C  0.00503729  0.67915976  0.72185605     0.34900
C840        C  0.00622720  0.67763658  0.77639433     0.34900
C841        C  0.97928705  0.76977785  0.65069831    -0.22600
C842        C  0.97743416  0.73515284  0.65038697    -0.22600
C843        C  0.97526540  0.76472166  0.84924160    -0.22600
C844        C  0.97589043  0.73003309  0.84904750    -0.22600
C845        C  0.02482342  0.84962054  0.73554595    -0.23600
C846        C  0.02343420  0.84881874  0.77017275    -0.23600
C847        C  0.01682674  0.64735786  0.73064247    -0.23600
C848        C  0.01769115  0.64643611  0.76526728    -0.23600
C849        C  0.00353213  0.81180312  0.69035319    -0.19000
C850        C  0.99745530  0.68982466  0.68876822    -0.19000
C851        C  0.99975218  0.68661337  0.81031044    -0.19000
C852        C  0.99923349  0.80884790  0.81186333    -0.19000
H853        H  0.97044952  0.78640766  0.63094132     0.13900
H854        H  0.96712230  0.71994873  0.63025076     0.13900
H855        H  0.96464402  0.78047281  0.86898497     0.13900
H856        H  0.96569803  0.71387570  0.86848536     0.13900
H857        H  0.03488842  0.86988964  0.72040736     0.12200
H858        H  0.03226263  0.86834596  0.78700204     0.12200
H859        H  0.02374361  0.62683283  0.71389449     0.12200
H860        H  0.02536527  0.62507601  0.78042916     0.12200
H861        H  0.01687483  0.74943540  0.72030090     0.25500
H862        H  0.01697774  0.74810419  0.78071043     0.25500
O863        O  0.49895620  0.59598474  0.55604759    -0.87200
O864        O  0.50214750  0.90507879  0.55643985    -0.87300
O865        O  0.44458523  0.49994948  0.59882352    -0.89000
O866        O  0.05410735  0.49807972  0.59794700    -0.87800
O867        O  0.09475950  0.49933528  0.55647332    -0.87400
O868        O  0.40393296  0.00217767  0.55542187    -0.88700
O869        O  0.49940200  0.94622377  0.59719854    -0.87200
O870        O  0.49689254  0.55560657  0.59748971    -0.86800
Zr871      Zr  0.49910594  0.50028409  0.57052646     2.84300
O872        O  0.03376183  0.96577566  0.53520182    -1.08800
O873        O  0.46504687  0.53452541  0.53652087    -1.09500
C874        C  0.49749478  0.58645027  0.58707946     1.05900
C875        C  0.50123128  0.91517598  0.58746320     1.05900
C876        C  0.41351125  0.50154237  0.58920318     1.08900
C877        C  0.08510159  0.49832074  0.58763377     1.06600
H878        H  0.45110928  0.95279819  0.54925852     0.32200
O879        O  0.46520855  0.96665666  0.53514178    -1.29700
H880        H  0.04749528  0.54784144  0.55049682     0.31900
O881        O  0.03340882  0.53394681  0.53643059    -1.31400
O882        O  0.49908592  0.90214704  0.94658430    -0.87200
O883        O  0.49903247  0.59493555  0.94589618    -0.88700
O884        O  0.40329728  0.94488837  0.00097253    -0.87200
O885        O  0.09529025  0.94476851  0.99891091    -0.87300
O886        O  0.09348196  0.55462487  0.99990757    -0.87000
O887        O  0.40184484  0.55464673  0.99982494    -0.86800
O888        O  0.44419464  0.99832673  0.90417824    -0.87200
O889        O  0.05334301  0.99723442  0.90370099    -0.86600
O890        O  0.40327583  0.00067876  0.94529564    -0.87700
O891        O  0.09403679  0.00149355  0.94464441    -0.86900
O892        O  0.44448163  0.90391338  0.00183582    -0.87300
O893        O  0.44266681  0.59548337  0.00170432    -0.87000
O894        O  0.05229150  0.59570382  0.00209446    -0.86600
O895        O  0.05466868  0.90373464  0.99658958    -0.87000
O896        O  0.49692048  0.94262134  0.90528229    -0.87300
O897        O  0.49586133  0.55360324  0.90536601    -0.88700
Zr898      Zr  0.49961083  0.93105026  0.00078340     2.83100
Zr899      Zr  0.49759368  0.56781749  0.00116044     2.83500
Zr900      Zr  0.43121110  0.99937723  0.00001045     2.84100
Zr901      Zr  0.06702474  0.99941386  0.99979347     2.83400
Zr902      Zr  0.49877721  0.99816599  0.93199711     2.84200
O903        O  0.03155763  0.53351414  0.96691806    -1.09300
O904        O  0.46492015  0.96427946  0.96621372    -1.08800
C905        C  0.49772274  0.91167759  0.91547885     1.05900
C906        C  0.49753114  0.58473559  0.91492765     1.08500
C907        C  0.41326737  0.91379596  0.00175468     1.06100
C908        C  0.08555908  0.91386516  0.99674118     1.06400
C909        C  0.08337164  0.58562365  0.00100559     1.06000
C910        C  0.41173517  0.58558391  0.00037962     1.05600
C911        C  0.41318702  0.99997100  0.91420693     1.06000
C912        C  0.08424171  0.99957942  0.91366507     1.05500
H913        H  0.44902635  0.54746403  0.95345332     0.32200
O914        O  0.46315598  0.53360212  0.96767860    -1.30400
H915        H  0.04739401  0.95075852  0.95180527     0.32200
O916        O  0.03332637  0.96477298  0.96612780    -1.31700
N917        N  0.24940966  0.50037014  0.70081399    -0.37300
N918        N  0.30013382  0.49795405  0.75333077    -0.57900
N919        N  0.24720974  0.49993854  0.80378569    -0.37300
N920        N  0.19651820  0.49862204  0.75125179    -0.57900
C921        C  0.27749969  0.49207687  0.68311473     0.26300
C922        C  0.22254572  0.49119468  0.68201691     0.26300
C923        C  0.27408898  0.49024219  0.82244556     0.26300
C924        C  0.21916268  0.49177952  0.82135984     0.26300
C925        C  0.31952374  0.50647643  0.72665002     0.34900
C926        C  0.31836885  0.50496764  0.78115185     0.34900
C927        C  0.17835341  0.50638137  0.72353231     0.34900
C928        C  0.17725510  0.50746542  0.77806452     0.34900
C929        C  0.26845934  0.47722361  0.65278454    -0.22600
C930        C  0.23371270  0.47658942  0.65212391    -0.22600
C931        C  0.26300519  0.47547418  0.85213209    -0.22600
C932        C  0.22826246  0.47646535  0.85145566    -0.22600
C933        C  0.35010213  0.51923871  0.73754309    -0.23600
C934        C  0.34938207  0.51824781  0.77215741    -0.23600
C935        C  0.14754639  0.52052635  0.73273300    -0.23600
C936        C  0.14686263  0.52124158  0.76737925    -0.23600
C937        C  0.31081610  0.50004686  0.69276562    -0.19000
C938        C  0.18844848  0.49829128  0.69028760    -0.19000
C939        C  0.18583800  0.50030162  0.81182638    -0.19000
C940        C  0.30813104  0.49698431  0.81429063    -0.19000
H941        H  0.28514446  0.46810470  0.63303385     0.13900
H942        H  0.21845300  0.46691808  0.63173637     0.13900
H943        H  0.27832707  0.46544680  0.87238132     0.13900
H944        H  0.21162860  0.46730507  0.87106340     0.13900
H945        H  0.37089380  0.52801130  0.72220061     0.12200
H946        H  0.36946886  0.52618821  0.78874875     0.12200
H947        H  0.12757392  0.52919721  0.71624294     0.12200
H948        H  0.12621823  0.53046116  0.78289611     0.12200
H949        H  0.24865284  0.51523520  0.72249147     0.25500
H950        H  0.24792347  0.51503495  0.78233891     0.25500
N951        N  0.24816517  0.80056376  0.99408976    -0.37300
N952        N  0.30020296  0.74923234  0.99622346    -0.57900
N953        N  0.24721810  0.69746610  0.99741231    -0.37300
N954        N  0.19555888  0.74856236  0.99599959    -0.57900
C955        C  0.27546791  0.81894097  0.98491295     0.26300
C956        C  0.22049209  0.81805333  0.98407031     0.26300
C957        C  0.27508018  0.67910147  0.00485235     0.26300
C958        C  0.22017826  0.67853174  0.00576670     0.26300
C959        C  0.31900727  0.77556242  0.98587449     0.34900
C960        C  0.31760979  0.72114317  0.98742837     0.34900
C961        C  0.17535567  0.77609554  0.99562664     0.34900
C962        C  0.17497909  0.72164666  0.99836240     0.34900
C963        C  0.26479916  0.84720876  0.96724155    -0.22600
C964        C  0.23020388  0.84718819  0.96762869    -0.22600
C965        C  0.26569231  0.64834418  0.01842392    -0.22600
C966        C  0.23100790  0.64786049  0.01866867    -0.22600
C967        C  0.34719248  0.76392402  0.96837611    -0.23600
C968        C  0.34688056  0.72946269  0.97033689    -0.23600
C969        C  0.14181721  0.76662388  0.99844167    -0.23600
C970        C  0.14154538  0.73216152  0.99922644    -0.23600
C971        C  0.30976721  0.80983430  0.99049226    -0.19000
C972        C  0.18649408  0.80936719  0.99013712    -0.19000
C973        C  0.18593140  0.68786883  0.00178696    -0.19000
C974        C  0.30847714  0.68817537  0.99656028    -0.19000
H975        H  0.28025412  0.86550971  0.95431465     0.13900
H976        H  0.21396791  0.86597456  0.95613355     0.13900
H977        H  0.28208847  0.62805563  0.02670704     0.13900
H978        H  0.21550552  0.62734044  0.02756581     0.13900
H979        H  0.36554891  0.77857670  0.95457495     0.12200
H980        H  0.36555224  0.71241748  0.95964916     0.12200
H981        H  0.11958801  0.78260157  0.99919326     0.12200
H982        H  0.11915316  0.71684049  0.00097532     0.12200
H983        H  0.24819964  0.77925638  0.00939429     0.25500
H984        H  0.24694770  0.71989405  0.98386415     0.25500
C985        C  0.39585944  0.85317274  0.00238458    -0.14000
C986        C  0.38691619  0.88740891  0.00230472     0.08100
C987        C  0.35252006  0.89600299  0.00357628    -0.14000
C988        C  0.32785878  0.87103493  0.00187502    -0.14000
C989        C  0.33655549  0.83671996  0.99653717     0.08100
C990        C  0.37111628  0.82835585  0.00074143    -0.14000
H991        H  0.42207867  0.84536790  0.00389235     0.12100
H992        H  0.34451312  0.92206448  0.00605315     0.12100
H993        H  0.30208937  0.87922109  0.00550083     0.12100
H994        H  0.37979856  0.80276241  0.00368915     0.12100
C995        C  0.35750206  0.60804386  0.97801743    -0.14000
C996        C  0.38554723  0.61183604  0.99917666     0.08100
C997        C  0.38850317  0.64095017  0.01905264    -0.14000
C998        C  0.36331456  0.66569526  0.01830965    -0.14000
C999        C  0.33521694  0.66188974  0.99720257     0.08100
C1000       C  0.33265564  0.63311227  0.97676842    -0.14000
H1001       H  0.35507960  0.58591760  0.96216459     0.12100
H1002       H  0.40996970  0.64421639  0.03558101     0.12100
H1003       H  0.36561272  0.68777268  0.03424758     0.12100
H1004       H  0.31131475  0.63005097  0.96004842     0.12100
C1005       C  0.11015482  0.86323641  0.96868819    -0.14000
C1006       C  0.11191779  0.88799787  0.99394282     0.08100
C1007       C  0.13896163  0.88786456  0.01660372    -0.14000
C1008       C  0.16327269  0.86232329  0.01500511    -0.14000
C1009       C  0.16122522  0.83710147  0.99024424     0.08100
C1010       C  0.13509837  0.83827039  0.96642096    -0.14000
H1011       H  0.08964330  0.86340751  0.95066509     0.12100
H1012       H  0.14068288  0.90694447  0.03610950     0.12100
H1013       H  0.18348211  0.86190126  0.03335655     0.12100
H1014       H  0.13360859  0.81936825  0.94672768     0.12100
C1015       C  0.13288883  0.61364682  0.97478421    -0.14000
C1016       C  0.10956394  0.61157143  0.00138030     0.08100
C1017       C  0.11186737  0.63395744  0.02870640    -0.14000
C1018       C  0.13735973  0.65812897  0.02948915    -0.14000
C1019       C  0.16015750  0.66085629  0.00243891     0.08100
C1020       C  0.15786178  0.63834808  0.97517248    -0.14000
H1021       H  0.13140402  0.59650039  0.95353156     0.11000
H1022       H  0.09422614  0.63239584  0.04958898     0.12100
H1023       H  0.13898567  0.67513424  0.05082803     0.12100
H1024       H  0.17525028  0.64014422  0.95410390     0.12100
C1025       C  0.35778491  0.02124371  0.89294317    -0.14000
C1026       C  0.38705006  0.00162501  0.88795316     0.08100
C1027       C  0.39143363  0.98406440  0.85745019    -0.14000
C1028       C  0.36326193  0.47580340  0.83751867    -0.14000
C1029       C  0.33400492  0.49575620  0.84136919     0.08100
C1030       C  0.32998825  0.51545904  0.87059316    -0.14000
H1031       H  0.35410429  0.03534077  0.91612798     0.12100
H1032       H  0.41378975  0.96872029  0.85311302     0.12100
H1033       H  0.36668545  0.46017091  0.81530513     0.12100
H1034       H  0.30774076  0.53118811  0.87395231     0.12100
C1035       C  0.13808183  0.51953058  0.89272557    -0.14000
C1036       C  0.11067218  0.00006655  0.88763164     0.08100
C1037       C  0.10826627  0.97938050  0.85900122    -0.14000
C1038       C  0.13391239  0.97934847  0.83475201    -0.14000
C1039       C  0.15894309  0.50065133  0.83807446     0.08100
C1040       C  0.16262520  0.52024838  0.86736400    -0.14000
H1041       H  0.14149147  0.53476330  0.91515918     0.12100
H1042       H  0.08686105  0.96287472  0.85570760     0.12100
H1043       H  0.13188572  0.96295327  0.81297124     0.12100
H1044       H  0.18466481  0.53589632  0.87065070     0.12100
C1045       C  0.14136615  0.51626334  0.60895880    -0.14000
C1046       C  0.11172453  0.49761778  0.61351992     0.08100
C1047       C  0.10774260  0.47844109  0.64297832    -0.14000
C1048       C  0.13307182  0.47789389  0.66745157    -0.14000
C1049       C  0.16237596  0.49724940  0.66331063     0.08100
C1050       C  0.16628912  0.51639629  0.63381493    -0.14000
H1051       H  0.14487244  0.53138294  0.58650728     0.12100
H1052       H  0.08247579  0.96821207  0.64908897     0.12100
H1053       H  0.12966323  0.46269454  0.68986344     0.12100
H1054       H  0.18851929  0.53171782  0.63021073     0.12100
C1055       C  0.35820310  0.52133552  0.61246822    -0.14000
C1056       C  0.38753966  0.50158171  0.61580785     0.08100
C1057       C  0.39184143  0.48160592  0.64470270    -0.14000
C1058       C  0.36684758  0.48090354  0.66960757    -0.14000
C1059       C  0.33757974  0.50084904  0.66641833     0.08100
C1060       C  0.33359355  0.52127152  0.63778071    -0.14000
H1061       H  0.35454609  0.53711999  0.59048948     0.12100
H1062       H  0.41541017  0.97008834  0.64795140     0.12100
H1063       H  0.37024801  0.46472185  0.69133499     0.12100
H1064       H  0.31128912  0.53698833  0.63497856     0.12100
C1065       C  0.47933824  0.63122622  0.83347335    -0.14000
C1066       C  0.49942995  0.66006325  0.83695904     0.08100
C1067       C  0.01856090  0.66407269  0.86648837    -0.14000
C1068       C  0.01747907  0.63986896  0.89207679    -0.14000
C1069       C  0.49788685  0.61076050  0.88828282     0.08100
C1070       C  0.47891483  0.60659851  0.85869689    -0.14000
H1071       H  0.46389599  0.62784201  0.81123963     0.12100
H1072       H  0.03424935  0.68607327  0.86975564     0.12100
H1073       H  0.03245778  0.64358282  0.91458042     0.12100
H1074       H  0.46332449  0.58454150  0.85534553     0.12100
C1075       C  0.47953293  0.86492270  0.83439468    -0.14000
C1076       C  0.49796254  0.83487270  0.83897413     0.08100
C1077       C  0.01565028  0.82994599  0.86925083    -0.14000
C1078       C  0.01497134  0.85462585  0.89444782    -0.14000
C1079       C  0.49730072  0.88504672  0.88944872     0.08100
C1080       C  0.47958778  0.88998121  0.85920867    -0.14000
H1081       H  0.46539206  0.86910154  0.81141200     0.12100
H1082       H  0.03021555  0.80707771  0.87323929     0.12100
H1083       H  0.02897064  0.85030251  0.91749111     0.12100
H1084       H  0.46550881  0.91309438  0.85492123     0.12100
C1085       C  0.02136786  0.83419614  0.63369384    -0.14000
C1086       C  0.50389363  0.83892425  0.66429946     0.08100
C1087       C  0.48594264  0.86921498  0.66956121    -0.14000
C1088       C  0.48560042  0.89427754  0.64484141    -0.14000
C1089       C  0.50236661  0.88912152  0.61395441     0.08100
C1090       C  0.02019847  0.85883775  0.60856862    -0.14000
H1091       H  0.03561671  0.81120864  0.62911868     0.12100
H1092       H  0.47190665  0.87333763  0.69272716     0.12100
H1093       H  0.47152384  0.91735393  0.64953735     0.12100
H1094       H  0.03359541  0.85440840  0.58507651     0.12100
C1095       C  0.47391824  0.63672774  0.66443376    -0.14000
C1096       C  0.49596908  0.66413277  0.66169549     0.08100
C1097       C  0.01771126  0.66633601  0.63379627    -0.14000
C1098       C  0.01780222  0.64117826  0.60920459    -0.14000
C1099       C  0.49665453  0.61318084  0.61259757     0.08100
C1100       C  0.47457309  0.61114617  0.64022671    -0.14000
H1101       H  0.45673805  0.63488947  0.68566695     0.12100
H1102       H  0.03493956  0.68727370  0.63138897     0.12100
H1103       H  0.03497621  0.64312176  0.58797025     0.12100
H1104       H  0.45771411  0.58993840  0.64288807     0.12100
N1105       N  0.50378761  0.25001171  0.19913119    -0.37300
N1106       N  0.50134684  0.30088143  0.25211422    -0.57900
N1107       N  0.50549622  0.24816525  0.30242922    -0.37300
N1108       N  0.50432368  0.19736901  0.24949758    -0.57900
C1109       C  0.49459552  0.27789524  0.18173543     0.26300
C1110       C  0.49476381  0.22295851  0.18043512     0.26300
C1111       C  0.49533407  0.27495828  0.32124662     0.26300
C1112       C  0.49732982  0.22005404  0.31981653     0.26300
C1113       C  0.50879592  0.32034179  0.22518231     0.34900
C1114       C  0.50853109  0.31938144  0.27984144     0.34900
C1115       C  0.51039661  0.17866916  0.22157567     0.34900
C1116       C  0.51219518  0.17770554  0.27615794     0.34900
C1117       C  0.47935932  0.26849319  0.15173296    -0.22600
C1118       C  0.47943887  0.23379870  0.15092358    -0.22600
C1119       C  0.48026060  0.26371119  0.35072557    -0.22600
C1120       C  0.48159239  0.22905185  0.34986000    -0.22600
C1121       C  0.52111016  0.35118378  0.23584317    -0.23600
C1122       C  0.52091349  0.35058251  0.27048901    -0.23600
C1123       C  0.52260557  0.14707645  0.23049766    -0.23600
C1124       C  0.52379159  0.14648116  0.26513673    -0.23600
C1125       C  0.50192616  0.31142569  0.19133631    -0.19000
C1126       C  0.50200253  0.18891481  0.18850895    -0.19000
C1127       C  0.50557353  0.18664059  0.31008004    -0.19000
C1128       C  0.50143582  0.30915214  0.31327041    -0.19000
H1129       H  0.46942778  0.28491364  0.13231461     0.13900
H1130       H  0.46957700  0.21834774  0.13075099     0.13900
H1131       H  0.46955754  0.27887468  0.37087906     0.13900
H1132       H  0.47210590  0.21237364  0.36921271     0.13900
H1133       H  0.52914640  0.37207531  0.22033908     0.12200
H1134       H  0.52881637  0.37088225  0.28686351     0.12200
H1135       H  0.52939602  0.12642120  0.21385949     0.12200
H1136       H  0.53158662  0.12524081  0.28041421     0.12200
H1137       H  0.51890676  0.24960088  0.22056674     0.25500
H1138       H  0.52058489  0.24901923  0.28087071     0.25500
O1139       O  0.99807946  0.09549463  0.05412108    -0.87200
O1140       O  0.00159233  0.40480860  0.05758090    -0.87300
O1141       O  0.94407375  0.99990636  0.09547385    -0.89000
O1142       O  0.55449002  0.99963345  0.09534581    -0.87800
O1143       O  0.59544286  0.00044562  0.05414961    -0.87400
O1144       O  0.90119643  0.50239001  0.05720921    -0.88700
O1145       O  0.99832741  0.44600571  0.09829717    -0.87200
O1146       O  0.99655486  0.05498403  0.09546130    -0.86800
Zr1147     Zr  0.99913677  0.99963000  0.06819264     2.84300
O1148       O  0.53209313  0.46640427  0.03626013    -1.08800
O1149       O  0.96501866  0.03354157  0.03388702    -1.09500
C1150       C  0.99703592  0.08592816  0.08522579     1.05900
C1151       C  0.00054743  0.41493569  0.08858187     1.05900
C1152       C  0.91308053  0.00144467  0.08553840     1.08900
C1153       C  0.58558088  0.00026672  0.08524496     1.06600
H1154       H  0.94949058  0.45166482  0.05096419     0.32200
O1155       O  0.96343553  0.46569429  0.03683101    -1.29700
H1156       H  0.54668973  0.04741572  0.04839314     0.31900
O1157       O  0.53290902  0.03344407  0.03407509    -1.31400
O1158       O  0.99970939  0.40257621  0.44896591    -0.87200
O1159       O  0.00357240  0.09481049  0.44495054    -0.88700
O1160       O  0.90312471  0.44566062  0.50204531    -0.87200
O1161       O  0.59524994  0.44489805  0.50090447    -0.87300
O1162       O  0.59680437  0.05317365  0.50143722    -0.87000
O1163       O  0.90477061  0.05616909  0.50014115    -0.86800
O1164       O  0.94250248  0.49886149  0.40717036    -0.87200
O1165       O  0.55196730  0.49850547  0.40602259    -0.86600
O1166       O  0.90195209  0.50159406  0.44861340    -0.87700
O1167       O  0.59330113  0.50207297  0.44639831    -0.86900
O1168       O  0.94409617  0.40438528  0.50501313    -0.87300
O1169       O  0.94607658  0.09649156  0.50222301    -0.87000
O1170       O  0.55611883  0.09469678  0.50341825    -0.86600
O1171       O  0.55440023  0.40427991  0.50474677    -0.87000
O1172       O  0.99626790  0.44294497  0.40763423    -0.87300
O1173       O  0.00011958  0.05352304  0.40431571    -0.88700
Zr1174     Zr  0.99909485  0.43164075  0.50331594     2.83100
Zr1175     Zr  0.00077831  0.06795336  0.50031058     2.83500
Zr1176     Zr  0.93064911  0.50052341  0.50300602     2.84100
Zr1177     Zr  0.56681601  0.49943903  0.50173720     2.83400
Zr1178     Zr  0.99768508  0.49858040  0.43445879     2.84200
O1179       O  0.53417301  0.03305874  0.46595251    -1.09300
O1180       O  0.96414188  0.46511825  0.46922164    -1.08800
C1181       C  0.99788122  0.41199215  0.41781066     1.05900
C1182       C  0.00235351  0.08456954  0.41396819     1.08500
C1183       C  0.91303287  0.41455859  0.50358194     1.06100
C1184       C  0.58539813  0.41402586  0.50295627     1.06400
C1185       C  0.58716647  0.08432731  0.50318562     1.06000
C1186       C  0.91496442  0.08696433  0.50153324     1.05600
C1187       C  0.91148877  0.50039907  0.41740744     1.06000
C1188       C  0.58297496  0.50081298  0.41556359     1.05500
H1189       H  0.95217456  0.04860751  0.45200456     0.32200
O1190       O  0.96607809  0.03444644  0.46614200    -1.30400
H1191       H  0.54680528  0.45069890  0.45405845     0.32200
O1192       O  0.53276784  0.46490117  0.46819375    -1.31700
N1193       N  0.74928206  0.00520976  0.19813998    -0.37300
N1194       N  0.80112194  0.00310925  0.24994331    -0.57900
N1195       N  0.74948179  0.00209086  0.30104877    -0.37300
N1196       N  0.69762838  0.00091850  0.24930968    -0.57900
C1197       C  0.77709262  0.99597097  0.18049702     0.26300
C1198       C  0.72219248  0.99536094  0.18005947     0.26300
C1199       C  0.77707943  0.99273582  0.31889986     0.26300
C1200       C  0.72208084  0.99185972  0.31856907     0.26300
C1201       C  0.81947563  0.01239692  0.22281782     0.34900
C1202       C  0.81984696  0.01037207  0.27739843     0.34900
C1203       C  0.67880282  0.00964950  0.22229391     0.34900
C1204       C  0.67876635  0.00815183  0.27686005     0.34900
C1205       C  0.76758558  0.97949786  0.15112809    -0.22600
C1206       C  0.73283041  0.97926068  0.15078701    -0.22600
C1207       C  0.76709112  0.97598332  0.34789102    -0.22600
C1208       C  0.73233982  0.97545936  0.34769809    -0.22600
C1209       C  0.84979371  0.02630103  0.23308547    -0.23600
C1210       C  0.85008480  0.02487366  0.26774813    -0.23600
C1211       C  0.64799215  0.02288385  0.23266746    -0.23600
C1212       C  0.64797034  0.02195424  0.26733840    -0.23600
C1213       C  0.81047581  0.00468862  0.18922494    -0.19000
C1214       C  0.68833153  0.00279828  0.18862303    -0.19000
C1215       C  0.68824615  0.99967331  0.31012055    -0.19000
C1216       C  0.81073494  0.00125506  0.31061427    -0.19000
H1217       H  0.78394588  0.96908168  0.13174991     0.13900
H1218       H  0.71720161  0.96865035  0.13116087     0.13900
H1219       H  0.78312551  0.96554227  0.36736600     0.13900
H1220       H  0.71643898  0.96460969  0.36702871     0.13900
H1221       H  0.86990143  0.03581860  0.21728758     0.12200
H1222       H  0.87037656  0.03316628  0.28390527     0.12200
H1223       H  0.62756392  0.03190483  0.21693306     0.12200
H1224       H  0.62750067  0.03017853  0.28361239     0.12200
H1225       H  0.74879575  0.02093961  0.21924381     0.25500
H1226       H  0.74916356  0.01819564  0.28032014     0.25500
N1227       N  0.74932150  0.30139646  0.50090520    -0.37300
N1228       N  0.80160996  0.25067495  0.50421439    -0.57900
N1229       N  0.75020454  0.19844779  0.50410991    -0.37300
N1230       N  0.69781384  0.24911159  0.50463105    -0.57900
C1231       C  0.77638192  0.32026301  0.50930383     0.26300
C1232       C  0.72141695  0.31945524  0.50917905     0.26300
C1233       C  0.77813651  0.18087052  0.51301445     0.26300
C1234       C  0.72317281  0.18004010  0.51360765     0.26300
C1235       C  0.82046552  0.27781142  0.49639565     0.34900
C1236       C  0.82087497  0.22331749  0.49719838     0.34900
C1237       C  0.67856744  0.27607382  0.49632221     0.34900
C1238       C  0.67897728  0.22151550  0.49842906     0.34900
C1239       C  0.76553475  0.35057298  0.52321826    -0.22600
C1240       C  0.73081510  0.35007454  0.52313035    -0.22600
C1241       C  0.76882726  0.15107035  0.52859775    -0.22600
C1242       C  0.73407753  0.15058301  0.52904893    -0.22600
C1243       C  0.85176054  0.26767753  0.48416044    -0.23600
C1244       C  0.85200715  0.23308190  0.48461436    -0.23600
C1245       C  0.64742220  0.26559608  0.48456841    -0.23600
C1246       C  0.64769729  0.23098664  0.48585891    -0.23600
C1247       C  0.81044950  0.31145485  0.50274140    -0.19000
C1248       C  0.68784494  0.30990684  0.50214569    -0.19000
C1249       C  0.68914680  0.18819479  0.50627261    -0.19000
C1250       C  0.81161146  0.18991767  0.50484951    -0.19000
H1251       H  0.78099124  0.37102321  0.53231503     0.13900
H1252       H  0.71437229  0.37011102  0.53211347     0.13900
H1253       H  0.78536438  0.13152465  0.53826189     0.13900
H1254       H  0.71862479  0.13061000  0.53918918     0.13900
H1255       H  0.87235020  0.28351045  0.47601204     0.12200
H1256       H  0.87288785  0.21701466  0.47695903     0.12200
H1257       H  0.62654624  0.28123783  0.47626736     0.12200
H1258       H  0.62712366  0.21475446  0.47859434     0.12200
H1259       H  0.74973312  0.27926492  0.48673877     0.25500
H1260       H  0.74975581  0.21960982  0.48862284     0.25500
C1261       C  0.85787501  0.39210850  0.48345882    -0.14000
C1262       C  0.88667979  0.38849240  0.50373147     0.08100
C1263       C  0.89016165  0.35971999  0.52403420    -0.14000
C1264       C  0.86513687  0.33505672  0.52419964    -0.14000
C1265       C  0.83663058  0.33827596  0.50337722     0.08100
C1266       C  0.83325975  0.36703473  0.48299138    -0.14000
H1267       H  0.85477105  0.41401182  0.46745448     0.12100
H1268       H  0.91201873  0.35656747  0.54011837     0.12100
H1269       H  0.86808268  0.31330063  0.54042572     0.12100
H1270       H  0.81159555  0.36997662  0.46662218     0.12100
C1271       C  0.86000452  0.11046192  0.48205254    -0.14000
C1272       C  0.88876536  0.11334478  0.50239914     0.08100
C1273       C  0.89196700  0.14122620  0.52396418    -0.14000
C1274       C  0.86657252  0.16582768  0.52530141    -0.14000
C1275       C  0.83806752  0.16324152  0.50450642     0.08100
C1276       C  0.83497367  0.13540193  0.48287539    -0.14000
H1277       H  0.85718282  0.08916602  0.46516044     0.12100
H1278       H  0.91381297  0.14364300  0.54014350     0.12100
H1279       H  0.86919374  0.18701469  0.54235409     0.12100
H1280       H  0.81322399  0.13311399  0.46655319     0.12100
C1281       C  0.63990025  0.39029975  0.48169304    -0.14000
C1282       C  0.61165564  0.38764545  0.50296940     0.08100
C1283       C  0.60842427  0.35937046  0.52391327    -0.14000
C1284       C  0.63324368  0.33418132  0.52376880    -0.14000
C1285       C  0.66122890  0.33650925  0.50208029     0.08100
C1286       C  0.66430365  0.36470851  0.48095206    -0.14000
H1287       H  0.64272400  0.41184353  0.46519669     0.12100
H1288       H  0.58694734  0.35704195  0.54072667     0.12100
H1289       H  0.63068236  0.31286052  0.54058723     0.12100
H1290       H  0.68570987  0.36692075  0.46403248     0.12100
C1291       C  0.64394544  0.10622969  0.48685381    -0.14000
C1292       C  0.61374652  0.11017582  0.50515386     0.08100
C1293       C  0.60899775  0.13920883  0.52503684    -0.14000
C1294       C  0.63381870  0.16409420  0.52618094    -0.14000
C1295       C  0.66345476  0.16082490  0.50677529     0.08100
C1296       C  0.66836928  0.13149920  0.48732904    -0.14000
H1297       H  0.64820232  0.08404676  0.47137664     0.11000
H1298       H  0.58614967  0.14254533  0.53982214     0.12100
H1299       H  0.62970837  0.18617711  0.54182892     0.12100
H1300       H  0.69098608  0.12838173  0.47215938     0.12100
C1301       C  0.85385085  0.51734001  0.39716704    -0.14000
C1302       C  0.88481168  0.50069844  0.39133957     0.08100
C1303       C  0.89001280  0.48406670  0.36041443    -0.14000
C1304       C  0.86737019  0.98170788  0.33248292    -0.14000
C1305       C  0.83713782  0.99993100  0.33745206     0.08100
C1306       C  0.83199037  0.01677345  0.36829914    -0.14000
H1307       H  0.84926174  0.53056804  0.42070190     0.12100
H1308       H  0.91351198  0.47080350  0.35535729     0.12100
H1309       H  0.87175073  0.96807307  0.30914639     0.12100
H1310       H  0.80899276  0.03109346  0.37273025     0.12100
C1311       C  0.64198365  0.01608327  0.39263532    -0.14000
C1312       C  0.60874989  0.50181742  0.38899913     0.08100
C1313       C  0.60488997  0.48239454  0.35968019    -0.14000
C1314       C  0.62993133  0.48228791  0.33491252    -0.14000
C1315       C  0.66197582  0.99873787  0.33709559     0.08100
C1316       C  0.66649992  0.01683936  0.36722707    -0.14000
H1317       H  0.64603908  0.03037778  0.41556621     0.12100
H1318       H  0.58289717  0.46668740  0.35632849     0.12100
H1319       H  0.62693464  0.46654702  0.31277349     0.12100
H1320       H  0.68901120  0.03169165  0.37099448     0.12100
C1321       C  0.64125505  0.02015792  0.10695767    -0.14000
C1322       C  0.61197403  0.00086629  0.11139173     0.08100
C1323       C  0.60803721  0.98208278  0.14107568    -0.14000
C1324       C  0.63302903  0.98235087  0.16585117    -0.14000
C1325       C  0.66204307  0.00209291  0.16181475     0.08100
C1326       C  0.66593932  0.02101899  0.13211998    -0.14000
H1327       H  0.64472640  0.03501596  0.08431942     0.12100
H1328       H  0.58140175  0.46877253  0.14913181     0.12100
H1329       H  0.62971468  0.96716876  0.18828156     0.12100
H1330       H  0.68805213  0.03651361  0.12850655     0.12100
C1331       C  0.85606783  0.01920132  0.10622741    -0.14000
C1332       C  0.88683203  0.00233315  0.11182548     0.08100
C1333       C  0.89242557  0.98627972  0.14283262    -0.14000
C1334       C  0.86749138  0.98668507  0.16771815    -0.14000
C1335       C  0.83698678  0.00418528  0.16254542     0.08100
C1336       C  0.83156791  0.02058657  0.13159916    -0.14000
H1337       H  0.85125208  0.03185930  0.08250905     0.12100
H1338       H  0.91347825  0.47237887  0.14983545     0.12100
H1339       H  0.87200355  0.97327379  0.19106568     0.12100
H1340       H  0.80828213  0.03432635  0.12705272     0.12100
C1341       C  0.98429452  0.13176454  0.33315500    -0.14000
C1342       C  0.00540774  0.15986234  0.33636516     0.08100
C1343       C  0.52558278  0.16299036  0.36527758    -0.14000
C1344       C  0.52435916  0.13866578  0.39072361    -0.14000
C1345       C  0.00347448  0.11043858  0.38733169     0.08100
C1346       C  0.98365850  0.10704850  0.35822354    -0.14000
H1347       H  0.96817054  0.12909816  0.31130660     0.12100
H1348       H  0.54206547  0.18444832  0.36821448     0.12100
H1349       H  0.54004663  0.14165516  0.41285026     0.12100
H1350       H  0.96716048  0.08561022  0.35521433     0.12100
C1351       C  0.98001811  0.36456155  0.33673616    -0.14000
C1352       C  0.99966216  0.33514253  0.34070801     0.08100
C1353       C  0.51788329  0.33079015  0.37081458    -0.14000
C1354       C  0.51666027  0.35537501  0.39621665    -0.14000
C1355       C  0.99791095  0.38524994  0.39167249     0.08100
C1356       C  0.97957115  0.38956767  0.36169970    -0.14000
H1357       H  0.96527286  0.36833587  0.31407269     0.12100
H1358       H  0.53331529  0.30844680  0.37452449     0.12100
H1359       H  0.53111690  0.35144742  0.41904676     0.12100
H1360       H  0.96459557  0.41217537  0.35772636     0.12100
C1361       C  0.52145587  0.33451028  0.13560450    -0.14000
C1362       C  0.00176048  0.33821935  0.16497253     0.08100
C1363       C  0.98194089  0.36749844  0.16908046    -0.14000
C1364       C  0.98222087  0.39279431  0.14459040    -0.14000
C1365       C  0.00149814  0.38882463  0.11503466     0.08100
C1366       C  0.52103471  0.35941256  0.11067668    -0.14000
H1367       H  0.53708323  0.31225141  0.13197337     0.12100
H1368       H  0.96624513  0.37075432  0.19130205     0.12100
H1369       H  0.96671908  0.41512084  0.14835721     0.12100
H1370       H  0.53626515  0.35588693  0.08816572     0.12100
C1371       C  0.97841652  0.13500124  0.16520670    -0.14000
C1372       C  0.99980033  0.16287597  0.16145841     0.08100
C1373       C  0.51936551  0.16570929  0.13200499    -0.14000
C1374       C  0.51776198  0.14101791  0.10687518    -0.14000
C1375       C  0.99719098  0.11265602  0.11111358     0.08100
C1376       C  0.97744530  0.10986317  0.14042930    -0.14000
H1377       H  0.96278759  0.13255916  0.18753625     0.12100
H1378       H  0.53606650  0.18693475  0.12862514     0.12100
H1379       H  0.53325544  0.14363251  0.08448068     0.12100
H1380       H  0.96111818  0.08837935  0.14401884     0.12100
N1381       N  0.50085330  0.25113132  0.70035711    -0.37300
N1382       N  0.49863317  0.30165531  0.75313215    -0.57900
N1383       N  0.49851652  0.24881817  0.80332886    -0.37300
N1384       N  0.49750307  0.19835563  0.75051355    -0.57900
C1385       C  0.49238885  0.27928331  0.68308908     0.26300
C1386       C  0.49083484  0.22444513  0.68169755     0.26300
C1387       C  0.48864558  0.27585461  0.82183461     0.26300
C1388       C  0.48922271  0.22095772  0.82049171     0.26300
C1389       C  0.50756304  0.32097735  0.72661216     0.34900
C1390       C  0.50533166  0.31979734  0.78113318     0.34900
C1391       C  0.50563391  0.18021285  0.72274058     0.34900
C1392       C  0.50555589  0.17896413  0.77731292     0.34900
C1393       C  0.47646058  0.27046901  0.65328104    -0.22600
C1394       C  0.47540462  0.23578070  0.65243934    -0.22600
C1395       C  0.47252966  0.26506951  0.85096003    -0.22600
C1396       C  0.47293683  0.23034392  0.85013111    -0.22600
C1397       C  0.52042370  0.35140768  0.73777661    -0.23600
C1398       C  0.51898825  0.35066893  0.77241269    -0.23600
C1399       C  0.51937395  0.14933409  0.73189480    -0.23600
C1400       C  0.51936679  0.14855426  0.76655407    -0.23600
C1401       C  0.50098944  0.31243255  0.69269797    -0.19000
C1402       C  0.49783060  0.19033635  0.68951956    -0.19000
C1403       C  0.49762641  0.18753112  0.81103011    -0.19000
C1404       C  0.49634638  0.30972201  0.81408247    -0.19000
H1405       H  0.46685070  0.28727112  0.63402626     0.13900
H1406       H  0.46485701  0.22064978  0.63238101     0.13900
H1407       H  0.46198938  0.28057820  0.87094325     0.13900
H1408       H  0.46275621  0.21389603  0.86932871     0.13900
H1409       H  0.52936044  0.37217506  0.72260033     0.12200
H1410       H  0.52669537  0.37072756  0.78918430     0.12200
H1411       H  0.52813523  0.12932643  0.71536905     0.12200
H1412       H  0.52810148  0.12780084  0.78199369     0.12200
H1413       H  0.51626027  0.25015604  0.72159925     0.25500
H1414       H  0.51440169  0.24925844  0.78233377     0.25500
O1415       O  0.99996075  0.09646677  0.55483472    -0.87200
O1416       O  0.00191173  0.40444081  0.55832482    -0.87300
O1417       O  0.94454967  0.99955635  0.59657536    -0.89000
O1418       O  0.55409804  0.99817603  0.59686953    -0.87800
O1419       O  0.59514993  0.99806015  0.55577038    -0.87400
O1420       O  0.90334747  0.50276732  0.55826555    -0.88700
O1421       O  0.99938580  0.44587140  0.59882729    -0.87200
O1422       O  0.99698044  0.05602503  0.59610218    -0.86800
Zr1423     Zr  0.99942948  0.00057952  0.56887996     2.84300
O1424       O  0.53331010  0.46587107  0.53658495    -1.08800
O1425       O  0.96593066  0.03484125  0.53439898    -1.09500
C1426       C  0.99795529  0.08698944  0.58594136     1.05900
C1427       C  0.00109260  0.41476354  0.58925497     1.05900
C1428       C  0.91358913  0.00083227  0.58651356     1.08900
C1429       C  0.58519600  0.99767954  0.58688541     1.06600
H1430       H  0.95070022  0.45235752  0.55150449     0.32200
O1431       O  0.96468283  0.46616846  0.53721197    -1.29700
H1432       H  0.54827000  0.04764556  0.54925642     0.31900
O1433       O  0.53425579  0.03388585  0.53500048    -1.31400
O1434       O  0.99759569  0.40342084  0.94828859    -0.87200
O1435       O  0.00115076  0.09378539  0.94419593    -0.88700
O1436       O  0.90286048  0.44423160  0.00068313    -0.87200
O1437       O  0.59404962  0.44537305  0.00279153    -0.87300
O1438       O  0.59492754  0.05390124  0.00187557    -0.87000
O1439       O  0.90319796  0.05413794  0.99935533    -0.86800
O1440       O  0.94213184  0.49658631  0.90654486    -0.87200
O1441       O  0.55192491  0.49795262  0.90564600    -0.86600
O1442       O  0.90144037  0.49879996  0.94794917    -0.87700
O1443       O  0.59304383  0.50076431  0.94633099    -0.86900
O1444       O  0.94431458  0.40353189  0.00094893    -0.87300
O1445       O  0.94385701  0.09504858  0.00018964    -0.87000
O1446       O  0.55374343  0.09495027  0.00443984    -0.86600
O1447       O  0.55337750  0.40447385  0.00007693    -0.87000
O1448       O  0.99472655  0.44367913  0.90683740    -0.87300
O1449       O  0.99789980  0.05257641  0.90351299    -0.88700
Zr1450     Zr  0.99843915  0.43203478  0.00256222     2.83100
Zr1451     Zr  0.99904269  0.06722921  0.99961859     2.83500
Zr1452     Zr  0.92949483  0.49972424  0.00238289     2.84100
Zr1453     Zr  0.56574244  0.50007240  0.00159665     2.83400
Zr1454     Zr  0.99716472  0.49897043  0.93374803     2.84200
O1455       O  0.53309045  0.03304839  0.96510569    -1.09300
O1456       O  0.96378154  0.46542757  0.96853522    -1.08800
C1457       C  0.99560469  0.41281456  0.91719414     1.05900
C1458       C  0.99954987  0.08364588  0.91321703     1.08500
C1459       C  0.91308660  0.41314301  0.00014469     1.06100
C1460       C  0.58428649  0.41443942  0.00108199     1.06400
C1461       C  0.58485538  0.08483046  0.00463937     1.06000
C1462       C  0.91282713  0.08515417  0.99981208     1.05600
C1463       C  0.91114788  0.49719159  0.91685807     1.06000
C1464       C  0.58298125  0.49946006  0.91535907     1.05500
H1465       H  0.95088444  0.04727432  0.95161778     0.32200
O1466       O  0.96494875  0.03318824  0.96573218    -1.30400
H1467       H  0.54620509  0.45131240  0.95356615     0.32200
O1468       O  0.53213024  0.46548126  0.96770367    -1.31700
N1469       N  0.74905282  0.00336405  0.69944169    -0.37300
N1470       N  0.80077584  0.00534029  0.75064335    -0.57900
N1471       N  0.74933085  0.00564365  0.80253273    -0.37300
N1472       N  0.69757357  0.00033285  0.75118986    -0.57900
C1473       C  0.77692672  0.99435179  0.68168017     0.26300
C1474       C  0.72198392  0.99226131  0.68204411     0.26300
C1475       C  0.77721866  0.99766189  0.82046641     0.26300
C1476       C  0.72234136  0.99560591  0.82077029     0.26300
C1477       C  0.81940845  0.01273748  0.72310301     0.34900
C1478       C  0.81950840  0.01390528  0.77766929     0.34900
C1479       C  0.67852068  0.00768273  0.72395801     0.34900
C1480       C  0.67875354  0.00863924  0.77844675     0.34900
C1481       C  0.76749754  0.97697994  0.65285066    -0.22600
C1482       C  0.73277726  0.97560689  0.65311533    -0.22600
C1483       C  0.76783531  0.98211921  0.85037082    -0.22600
C1484       C  0.73310532  0.98094603  0.85061444    -0.22600
C1485       C  0.84992750  0.02669680  0.73263472    -0.23600
C1486       C  0.85001431  0.02737048  0.76729746    -0.23600
C1487       C  0.64769113  0.02124581  0.73396188    -0.23600
C1488       C  0.64776841  0.02166099  0.76859604    -0.23600
C1489       C  0.81033703  0.00353541  0.68994190    -0.19000
C1490       C  0.68794703  0.99940591  0.69056433    -0.19000
C1491       C  0.68837365  0.00174398  0.81190879    -0.19000
C1492       C  0.81059385  0.00618207  0.81126647    -0.19000
H1493       H  0.78389110  0.96657360  0.63349627     0.13900
H1494       H  0.71725800  0.96397306  0.63399898     0.13900
H1495       H  0.78424612  0.97281964  0.87010673     0.13900
H1496       H  0.71756674  0.97068243  0.87056149     0.13900
H1497       H  0.87029895  0.03485731  0.71640301     0.12200
H1498       H  0.87046110  0.03610108  0.78302479     0.12200
H1499       H  0.62715021  0.02965872  0.71805998     0.12200
H1500       H  0.62730824  0.03032668  0.78466876     0.12200
H1501       H  0.74834690  0.01970940  0.72005500     0.25500
H1502       H  0.74854585  0.02060481  0.78097460     0.25500
N1503       N  0.74751493  0.30021048  0.99833207    -0.37300
N1504       N  0.79996491  0.24852681  0.00032859    -0.57900
N1505       N  0.74673712  0.19768610  0.00818778    -0.37300
N1506       N  0.69495755  0.24904214  0.00797008    -0.57900
C1507       C  0.77437685  0.31835201  0.98741973     0.26300
C1508       C  0.71933350  0.31827017  0.99088605     0.26300
C1509       C  0.77501617  0.17956207  0.01487208     0.26300
C1510       C  0.72024592  0.17980516  0.01995229     0.26300
C1511       C  0.81732683  0.27407631  0.98610523     0.34900
C1512       C  0.81574967  0.21974694  0.99065401     0.34900
C1513       C  0.67465181  0.27645844  0.00585597     0.34900
C1514       C  0.67450319  0.22211069  0.01157010     0.34900
C1515       C  0.76276811  0.34724548  0.97139745    -0.22600
C1516       C  0.72828520  0.34767016  0.97441572    -0.22600
C1517       C  0.76644110  0.15025314  0.03180263    -0.22600
C1518       C  0.73181279  0.15023350  0.03463483    -0.22600
C1519       C  0.84270720  0.26117983  0.96550215    -0.23600
C1520       C  0.84236940  0.22683101  0.96919475    -0.23600
C1521       C  0.64115987  0.26692258  0.00904871    -0.23600
C1522       C  0.64102460  0.23254124  0.01157166    -0.23600
C1523       C  0.80899186  0.30868554  0.99004315    -0.19000
C1524       C  0.68554216  0.30958194  0.99860973    -0.19000
C1525       C  0.68577040  0.18849069  0.01622726    -0.19000
C1526       C  0.80766872  0.18737345  0.00274972    -0.19000
H1527       H  0.77746420  0.36573742  0.95786491     0.13900
H1528       H  0.71157601  0.36696218  0.96452800     0.13900
H1529       H  0.78325062  0.13048950  0.04049366     0.13900
H1530       H  0.71678924  0.13063666  0.04610182     0.13900
H1531       H  0.85892321  0.27486511  0.94839949     0.12200
H1532       H  0.85913264  0.20901663  0.95675669     0.12200
H1533       H  0.61880732  0.28272724  0.00874193     0.12200
H1534       H  0.61857072  0.21739347  0.01355825     0.12200
H1535       H  0.74844001  0.27851300  0.01298190     0.25500
H1536       H  0.74545898  0.21877260  0.99263861     0.25500
C1537       C  0.89612396  0.35247592  0.99397248    -0.14000
C1538       C  0.88702576  0.38643129  0.99853098     0.08100
C1539       C  0.85280293  0.39437382  0.00307375    -0.14000
C1540       C  0.82829949  0.36924881  0.00180913    -0.14000
C1541       C  0.83652490  0.33541912  0.99339375     0.08100
C1542       C  0.87148613  0.32742880  0.99236274    -0.14000
H1543       H  0.92244121  0.34501865  0.99214037     0.12100
H1544       H  0.84487599  0.41999251  0.00860573     0.12100
H1545       H  0.80300202  0.37681594  0.00872020     0.12100
H1546       H  0.88083367  0.30194460  0.99169794     0.12100
C1547       C  0.85406050  0.10456768  0.98663607    -0.14000
C1548       C  0.88609799  0.11132556  0.00011806     0.08100
C1549       C  0.89215309  0.14308763  0.01445777    -0.14000
C1550       C  0.86649009  0.16740020  0.01585747    -0.14000
C1551       C  0.83451146  0.16078086  0.00218051     0.08100
C1552       C  0.82865636  0.12921498  0.98727005    -0.14000
H1553       H  0.84878794  0.08037267  0.97516775     0.12100
H1554       H  0.91653599  0.14890779  0.02520495     0.12100
H1555       H  0.87160042  0.19151851  0.02755880     0.12100
H1556       H  0.80442378  0.12368680  0.97604445     0.12100
C1557       C  0.60856211  0.36220697  0.97585759    -0.14000
C1558       C  0.61055365  0.38826220  0.99974817     0.08100
C1559       C  0.63772101  0.38908710  0.02228558    -0.14000
C1560       C  0.66204967  0.36344954  0.02171055    -0.14000
C1561       C  0.65992797  0.33713677  0.99808962     0.08100
C1562       C  0.63353816  0.33720607  0.97452247    -0.14000
H1563       H  0.58792086  0.36148938  0.95800148     0.12100
H1564       H  0.63961256  0.40907991  0.04083358     0.12100
H1565       H  0.68244057  0.36391834  0.03984992     0.12100
H1566       H  0.63191742  0.31747578  0.95567606     0.12100
C1567       C  0.63889887  0.11105732  0.98686337    -0.14000
C1568       C  0.61109747  0.11054805  0.00879665     0.08100
C1569       C  0.60891943  0.13435251  0.03503326    -0.14000
C1570       C  0.63397759  0.15878659  0.03881792    -0.14000
C1571       C  0.66076697  0.16057247  0.01553714     0.08100
C1572       C  0.66328118  0.13609928  0.98994998    -0.14000
H1573       H  0.64118559  0.09267476  0.96671076     0.11000
H1574       H  0.58801655  0.13381391  0.05270441     0.12100
H1575       H  0.63198789  0.17686891  0.05925851     0.12100
H1576       H  0.68386994  0.13682651  0.97190667     0.12100
C1577       C  0.85488784  0.51541513  0.89542732    -0.14000
C1578       C  0.88455464  0.49627503  0.89107611     0.08100
C1579       C  0.88857225  0.47642588  0.86196412    -0.14000
C1580       C  0.86656133  0.98546196  0.83262304    -0.14000
C1581       C  0.83735587  0.00523383  0.83747261     0.08100
C1582       C  0.83333032  0.02336819  0.86771893    -0.14000
H1583       H  0.85137016  0.53100799  0.91765833     0.12100
H1584       H  0.91111735  0.46118754  0.85831168     0.12100
H1585       H  0.87000048  0.97097619  0.80964972     0.12100
H1586       H  0.81109083  0.03892703  0.87186539     0.12100
C1587       C  0.63883448  0.02093572  0.89155083    -0.14000
C1588       C  0.60908876  0.49980185  0.88884160     0.08100
C1589       C  0.60508891  0.48065369  0.85930645    -0.14000
C1590       C  0.63000951  0.48077900  0.83428622    -0.14000
C1591       C  0.66188512  0.00058372  0.83842817     0.08100
C1592       C  0.66412535  0.02140175  0.86697709    -0.14000
H1593       H  0.64098674  0.03725356  0.91338317     0.12100
H1594       H  0.58298966  0.46511343  0.85589204     0.12100
H1595       H  0.62685428  0.46522904  0.81203583     0.12100
H1596       H  0.68535802  0.03815371  0.87007456     0.12100
C1597       C  0.64240957  0.01343738  0.60750214    -0.14000
C1598       C  0.61155485  0.99719713  0.61314727     0.08100
C1599       C  0.60599177  0.98110863  0.64419806    -0.14000
C1600       C  0.63104163  0.98100601  0.66899646    -0.14000
C1601       C  0.66160531  0.99809780  0.66371942     0.08100
C1602       C  0.66691522  0.01436904  0.63271476    -0.14000
H1603       H  0.64722378  0.02623777  0.58387662     0.12100
H1604       H  0.58522276  0.46360016  0.64686293     0.12100
H1605       H  0.62645300  0.96780240  0.69244156     0.12100
H1606       H  0.69004361  0.02800823  0.62806960     0.12100
C1607       C  0.85650651  0.01813007  0.60729577    -0.14000
C1608       C  0.88707253  0.00084753  0.61268223     0.08100
C1609       C  0.89217629  0.98391061  0.64335799    -0.14000
C1610       C  0.86704885  0.98422676  0.66818557    -0.14000
C1611       C  0.83681077  0.00230360  0.66317384     0.08100
C1612       C  0.83179151  0.01921620  0.63248086    -0.14000
H1613       H  0.85205177  0.03147667  0.58389307     0.12100
H1614       H  0.91420105  0.46598317  0.64763812     0.12100
H1615       H  0.87126131  0.97053819  0.69143372     0.12100
H1616       H  0.80873133  0.03337739  0.62808909     0.12100
C1617       C  0.97932765  0.13096295  0.83287532    -0.14000
C1618       C  0.99786098  0.16071581  0.83728633     0.08100
C1619       C  0.51696485  0.16480727  0.86677306    -0.14000
C1620       C  0.51740570  0.13975967  0.89147654    -0.14000
C1621       C  0.99929207  0.10983910  0.88685773     0.08100
C1622       C  0.98038481  0.10554330  0.85725331    -0.14000
H1623       H  0.96411303  0.12742245  0.81050511     0.12100
H1624       H  0.53160571  0.18742951  0.87061228     0.12100
H1625       H  0.53228343  0.14357414  0.91402835     0.12100
H1626       H  0.96589395  0.08283662  0.85330516     0.12100
C1627       C  0.97519179  0.36500613  0.83732047    -0.14000
C1628       C  0.99474769  0.33556925  0.84132252     0.08100
C1629       C  0.51358141  0.33125152  0.87096976    -0.14000
C1630       C  0.51322457  0.35610322  0.89598195    -0.14000
C1631       C  0.99461568  0.38602220  0.89143651     0.08100
C1632       C  0.97545362  0.39022329  0.86198736    -0.14000
H1633       H  0.96015704  0.36864714  0.81482039     0.12100
H1634       H  0.52893334  0.30882301  0.87450567     0.12100
H1635       H  0.52825917  0.35236908  0.91847126     0.12100
H1636       H  0.96056470  0.41291359  0.85816235     0.12100
C1637       C  0.52166121  0.33503494  0.63733117    -0.14000
C1638       C  0.00171175  0.33917603  0.66645655     0.08100
C1639       C  0.98191286  0.36849087  0.67011905    -0.14000
C1640       C  0.98225570  0.39335327  0.64523963    -0.14000
C1641       C  0.00173993  0.38894092  0.61588440     0.08100
C1642       C  0.52141903  0.35957086  0.61207117    -0.14000
H1643       H  0.53721610  0.31266503  0.63409892     0.12100
H1644       H  0.96602392  0.37199728  0.69216879     0.12100
H1645       H  0.96666802  0.41569216  0.64854968     0.12100
H1646       H  0.53683402  0.35578584  0.58972661     0.12100
C1647       C  0.97757384  0.13491480  0.66638570    -0.14000
C1648       C  0.99663239  0.16438302  0.66222699     0.08100
C1649       C  0.51521587  0.16862510  0.63229329    -0.14000
C1650       C  0.51506585  0.14375400  0.60722416    -0.14000
C1651       C  0.99695499  0.11379756  0.61192659     0.08100
C1652       C  0.97809314  0.10966571  0.64168534    -0.14000
H1653       H  0.96264191  0.13127907  0.68901862     0.12100
H1654       H  0.53020728  0.19103077  0.62853419     0.12100
H1655       H  0.52985546  0.14753554  0.58452172     0.12100
H1656       H  0.96353664  0.08701752  0.64570550     0.12100
N1657       N  0.50260398  0.75091809  0.20039705    -0.37300
N1658       N  0.49824097  0.80147277  0.25249283    -0.57900
N1659       N  0.50223980  0.74840871  0.30346263    -0.37300
N1660       N  0.50276737  0.69791833  0.25123957    -0.57900
C1661       C  0.49352714  0.77856917  0.18253822     0.26300
C1662       C  0.49385899  0.72365632  0.18192619     0.26300
C1663       C  0.49083297  0.77507681  0.32163162     0.26300
C1664       C  0.49444838  0.72028083  0.32103451     0.26300
C1665       C  0.50581819  0.82137427  0.22590560     0.34900
C1666       C  0.50400560  0.81998404  0.28048306     0.34900
C1667       C  0.51017135  0.67975609  0.22329034     0.34900
C1668       C  0.51139447  0.67852431  0.27791543     0.34900
C1669       C  0.47854917  0.76881791  0.15255338    -0.22600
C1670       C  0.47862462  0.73413067  0.15221973    -0.22600
C1671       C  0.47536032  0.76382467  0.35089907    -0.22600
C1672       C  0.47756069  0.72919223  0.35048648    -0.22600
C1673       C  0.51667391  0.85258141  0.23707217    -0.23600
C1674       C  0.51543796  0.85173303  0.27168669    -0.23600
C1675       C  0.52392479  0.64878845  0.23219993    -0.23600
C1676       C  0.52486605  0.64807417  0.26684612    -0.23600
C1677       C  0.50050007  0.81221987  0.19186001    -0.19000
C1678       C  0.50180207  0.68980789  0.19013763    -0.19000
C1679       C  0.50397234  0.68704539  0.31181942    -0.19000
C1680       C  0.49655823  0.80924840  0.31361864    -0.19000
H1681       H  0.46874437  0.78500910  0.13288017     0.13900
H1682       H  0.46895697  0.71844247  0.13214066     0.13900
H1683       H  0.46389942  0.77902081  0.37062162     0.13900
H1684       H  0.46791331  0.71251601  0.36975652     0.13900
H1685       H  0.52443696  0.87385048  0.22195444     0.12200
H1686       H  0.52206699  0.87222540  0.28840311     0.12200
H1687       H  0.53210005  0.62866465  0.21551847     0.12200
H1688       H  0.53389768  0.62727864  0.28205849     0.12200
H1689       H  0.51758983  0.75069638  0.22193886     0.25500
H1690       H  0.51793273  0.74957128  0.28234925     0.25500
O1691       O  0.99856618  0.59668466  0.05537519    -0.87200
O1692       O  0.00303553  0.90366987  0.05597938    -0.87300
O1693       O  0.94233434  0.50121176  0.09789294    -0.89000
O1694       O  0.55198402  0.49935060  0.09802764    -0.87800
O1695       O  0.59293926  0.50120491  0.05687125    -0.87400
O1696       O  0.90321330  0.00212448  0.05454518    -0.88700
O1697       O  0.99978712  0.94508818  0.09648734    -0.87200
O1698       O  0.99680153  0.55621831  0.09672634    -0.86800
Zr1699     Zr  0.99733732  0.50059619  0.07004788     2.84300
O1700       O  0.53373961  0.96522375  0.03446290    -1.08800
O1701       O  0.96325496  0.53451812  0.03579775    -1.09500
C1702       C  0.99785694  0.58714032  0.08649726     1.05900
C1703       C  0.00180002  0.91394875  0.08697179     1.05900
C1704       C  0.91121291  0.50232439  0.08823491     1.08900
C1705       C  0.58304857  0.50016601  0.08799768     1.06600
H1706       H  0.95108771  0.95146362  0.04892310     0.32200
O1707       O  0.96507716  0.96533058  0.03464900    -1.29700
H1708       H  0.54559370  0.54838500  0.04971934     0.31900
O1709       O  0.53158335  0.53427229  0.03579575    -1.31400
O1710       O  0.99830537  0.90300345  0.44751853    -0.87200
O1711       O  0.00225402  0.59475776  0.44686557    -0.88700
O1712       O  0.90354288  0.94660373  0.50123981    -0.87200
O1713       O  0.59474521  0.94390911  0.49980571    -0.87300
O1714       O  0.59545116  0.55347437  0.50129585    -0.87000
O1715       O  0.90340283  0.55580893  0.50164732    -0.86800
O1716       O  0.94468429  0.99729150  0.40453095    -0.87200
O1717       O  0.55462386  0.99674529  0.40456279    -0.86600
O1718       O  0.90380457  0.00003731  0.44566693    -0.87700
O1719       O  0.59548932  0.99985281  0.44546607    -0.86900
O1720       O  0.94439114  0.90533232  0.50208533    -0.87300
O1721       O  0.94465029  0.59619772  0.50252952    -0.87000
O1722       O  0.55457962  0.59479422  0.50422526    -0.86600
O1723       O  0.55357183  0.90344579  0.49741504    -0.87000
O1724       O  0.99701446  0.94320006  0.40589767    -0.87300
O1725       O  0.99869927  0.55337999  0.40642722    -0.88700
Zr1726     Zr  0.99941445  0.93217948  0.50131319     2.83100
Zr1727     Zr  0.99938967  0.56765608  0.50190713     2.83500
Zr1728     Zr  0.93179333  0.00095575  0.50048071     2.84100
Zr1729     Zr  0.56784498  0.99917339  0.50061670     2.83400
Zr1730     Zr  0.99957886  0.99889526  0.43238519     2.84200
O1731       O  0.53250036  0.53289728  0.46743300    -1.09300
O1732       O  0.96531382  0.96574586  0.46676417    -1.08800
C1733       C  0.99709790  0.91234642  0.41640299     1.05900
C1734       C  0.00109321  0.58449205  0.41592196     1.08500
C1735       C  0.91329624  0.91543872  0.50202141     1.06100
C1736       C  0.58454987  0.91315938  0.49785438     1.06400
C1737       C  0.58562688  0.58451413  0.50320156     1.06000
C1738       C  0.91352580  0.58669808  0.50181679     1.05600
C1739       C  0.91358413  0.99830322  0.41454108     1.06000
C1740       C  0.58566982  0.99813859  0.41442507     1.05500
H1741       H  0.95059672  0.54817535  0.45424363     0.32200
O1742       O  0.96450788  0.53399672  0.46835886    -1.30400
H1743       H  0.54755024  0.95087910  0.45249024     0.32200
O1744       O  0.53370907  0.96519522  0.46668538    -1.31700
N1745       N  0.74735112  0.50385279  0.20124746    -0.37300
N1746       N  0.79875568  0.50252443  0.25358361    -0.57900
N1747       N  0.74656922  0.50281704  0.30429647    -0.37300
N1748       N  0.69521644  0.50043881  0.25187292    -0.57900
C1749       C  0.77554019  0.49593062  0.18354095     0.26300
C1750       C  0.72058074  0.49369724  0.18278760     0.26300
C1751       C  0.77376541  0.49342036  0.32266206     0.26300
C1752       C  0.71881223  0.49353844  0.32167032     0.26300
C1753       C  0.81716589  0.51244855  0.22666677     0.34900
C1754       C  0.81678787  0.51064879  0.28130187     0.34900
C1755       C  0.67666003  0.50836107  0.22445618     0.34900
C1756       C  0.67643829  0.50941407  0.27893498     0.34900
C1757       C  0.76664611  0.48012804  0.15363105    -0.22600
C1758       C  0.73191166  0.47867889  0.15318058    -0.22600
C1759       C  0.76313809  0.47742906  0.35189378    -0.22600
C1760       C  0.72833183  0.47762720  0.35132535    -0.22600
C1761       C  0.84682343  0.52735601  0.23731967    -0.23600
C1762       C  0.84658198  0.52621645  0.27198999    -0.23600
C1763       C  0.64611170  0.52275698  0.23410774    -0.23600
C1764       C  0.64596838  0.52342477  0.26873999    -0.23600
C1765       C  0.80868601  0.50514895  0.19281178    -0.19000
C1766       C  0.68639978  0.50041138  0.19109913    -0.19000
C1767       C  0.68541149  0.50198140  0.31248503    -0.19000
C1768       C  0.80750568  0.50170299  0.31456500    -0.19000
H1769       H  0.78338673  0.47091035  0.13398033     0.13900
H1770       H  0.71676314  0.46819481  0.13311743     0.13900
H1771       H  0.77875852  0.46721660  0.37181959     0.13900
H1772       H  0.71192014  0.46766336  0.37072627     0.13900
H1773       H  0.86672036  0.53763037  0.22174784     0.12200
H1774       H  0.86618077  0.53557530  0.28841228     0.12200
H1775       H  0.62600325  0.53172919  0.21794872     0.12200
H1776       H  0.62563520  0.53279528  0.28457905     0.12200
H1777       H  0.74640668  0.51909858  0.22267098     0.25500
H1778       H  0.74672222  0.51853810  0.28327532     0.25500
N1779       N  0.74772566  0.80186713  0.50086238    -0.37300
N1780       N  0.80060261  0.75075312  0.50099392    -0.57900
N1781       N  0.74836023  0.69831420  0.50176213    -0.37300
N1782       N  0.69599476  0.74867100  0.50205560    -0.57900
C1783       C  0.77467398  0.82072882  0.49158979     0.26300
C1784       C  0.71973970  0.81903183  0.49111902     0.26300
C1785       C  0.77659927  0.68037267  0.50884597     0.26300
C1786       C  0.72173745  0.67915103  0.51085955     0.26300
C1787       C  0.81838455  0.77754724  0.48998554     0.34900
C1788       C  0.81771633  0.72305079  0.49036650     0.34900
C1789       C  0.67522984  0.77570102  0.50006383     0.34900
C1790       C  0.67592070  0.72125679  0.50231462     0.34900
C1791       C  0.76341435  0.84899770  0.47428407    -0.22600
C1792       C  0.72889212  0.84853003  0.47502645    -0.22600
C1793       C  0.76785158  0.64973929  0.52312171    -0.22600
C1794       C  0.73318482  0.64883737  0.52405097    -0.22600
C1795       C  0.84541529  0.76663493  0.47034599    -0.23600
C1796       C  0.84557880  0.73212019  0.47145351    -0.23600
C1797       C  0.64183383  0.76542109  0.49961391    -0.23600
C1798       C  0.64232761  0.73097230  0.50009753    -0.23600
C1799       C  0.80917122  0.81167032  0.49577089    -0.19000
C1800       C  0.68585811  0.80929165  0.49591788    -0.19000
C1801       C  0.68735573  0.68772216  0.50653350    -0.19000
C1802       C  0.80963815  0.68974508  0.49943313    -0.19000
H1803       H  0.77837375  0.86731225  0.46081122     0.13900
H1804       H  0.71234656  0.86697088  0.46341224     0.13900
H1805       H  0.78462279  0.62976481  0.53140045     0.13900
H1806       H  0.71810057  0.62820369  0.53339528     0.13900
H1807       H  0.86268419  0.78186778  0.45579177     0.12200
H1808       H  0.86359758  0.71553826  0.45906588     0.12200
H1809       H  0.61926682  0.78085329  0.49817585     0.12200
H1810       H  0.62026593  0.71511449  0.49933852     0.12200
H1811       H  0.74822971  0.78009727  0.51550147     0.25500
H1812       H  0.74751218  0.72050530  0.48780877     0.25500
C1813       C  0.89572713  0.85491601  0.50318364    -0.14000
C1814       C  0.88688377  0.88919431  0.50303296     0.08100
C1815       C  0.85261628  0.89796675  0.50542955    -0.14000
C1816       C  0.82785152  0.87306907  0.50539911    -0.14000
C1817       C  0.83618909  0.83862700  0.50027711     0.08100
C1818       C  0.87086784  0.83017518  0.50295329    -0.14000
H1819       H  0.92195946  0.84701437  0.50376280     0.12100
H1820       H  0.84481912  0.92409661  0.50785243     0.12100
H1821       H  0.80234107  0.88143544  0.51023999     0.12100
H1822       H  0.87952733  0.80452584  0.50568862     0.12100
C1823       C  0.85749651  0.60817769  0.48244367    -0.14000
C1824       C  0.88736150  0.61328754  0.50068606     0.08100
C1825       C  0.89207130  0.64402756  0.51758259    -0.14000
C1826       C  0.86688440  0.66888337  0.51702577    -0.14000
C1827       C  0.83688482  0.66368094  0.49899611     0.08100
C1828       C  0.83270163  0.63335857  0.48119336    -0.14000
H1829       H  0.85352833  0.58485450  0.46880688     0.12100
H1830       H  0.91489853  0.64850756  0.53183130     0.12100
H1831       H  0.87060993  0.69206814  0.53096504     0.12100
H1832       H  0.81000351  0.62904306  0.46669252     0.12100
C1833       C  0.61100994  0.86325614  0.47016569    -0.14000
C1834       C  0.61055682  0.88702027  0.49642177     0.08100
C1835       C  0.63521707  0.88584311  0.52158047    -0.14000
C1836       C  0.65960614  0.86042049  0.52119949    -0.14000
C1837       C  0.65997455  0.83634185  0.49526858     0.08100
C1838       C  0.63611383  0.83836679  0.46921513    -0.14000
H1839       H  0.59226180  0.86425589  0.45033780     0.12100
H1840       H  0.63508711  0.90416480  0.54189970     0.12100
H1841       H  0.67811443  0.85932213  0.54123947     0.12100
H1842       H  0.63661529  0.82031921  0.44866466     0.12100
C1843       C  0.63782721  0.61075383  0.48030722    -0.14000
C1844       C  0.61207432  0.61025320  0.50468483     0.08100
C1845       C  0.61194196  0.63429248  0.53071002    -0.14000
C1846       C  0.63713302  0.65874361  0.53217878    -0.14000
C1847       C  0.66211913  0.66014398  0.50699108     0.08100
C1848       C  0.66247737  0.63576164  0.48124926    -0.14000
H1849       H  0.63834773  0.59229991  0.46011596     0.11000
H1850       H  0.59251966  0.63392085  0.55001803     0.12100
H1851       H  0.63673318  0.67708722  0.55246224     0.12100
H1852       H  0.68160381  0.63642329  0.46165860     0.12100
C1853       C  0.85647333  0.01546825  0.39360756    -0.14000
C1854       C  0.88705707  0.99803744  0.38830131     0.08100
C1855       C  0.89226305  0.98110331  0.35749568    -0.14000
C1856       C  0.86465364  0.48372231  0.33596897    -0.14000
C1857       C  0.83389876  0.50085837  0.34145071     0.08100
C1858       C  0.82879470  0.51772521  0.37232474    -0.14000
H1859       H  0.85185381  0.02886597  0.41703860     0.12100
H1860       H  0.91546281  0.96716661  0.35288338     0.12100
H1861       H  0.86912137  0.47021269  0.31257819     0.12100
H1862       H  0.80547765  0.53140055  0.37710131     0.12100
C1863       C  0.63752412  0.52184637  0.39287611    -0.14000
C1864       C  0.61208513  0.99787579  0.38805013     0.08100
C1865       C  0.60748931  0.97978590  0.35791770    -0.14000
C1866       C  0.63241175  0.97986505  0.33284477    -0.14000
C1867       C  0.65878114  0.50221140  0.33877904     0.08100
C1868       C  0.66226022  0.52226962  0.36775101    -0.14000
H1869       H  0.64069830  0.53732877  0.41517791     0.12100
H1870       H  0.58478927  0.96527573  0.35394035     0.12100
H1871       H  0.62857353  0.96534978  0.31001598     0.12100
H1872       H  0.68421356  0.53806160  0.37092616     0.12100
C1873       C  0.63989460  0.51705226  0.10898040    -0.14000
C1874       C  0.60944904  0.49991624  0.11421715     0.08100
C1875       C  0.60456600  0.48240260  0.14458976    -0.14000
C1876       C  0.62989174  0.48171135  0.16908405    -0.14000
C1877       C  0.66012413  0.49946664  0.16417989     0.08100
C1878       C  0.66477681  0.51720318  0.13389158    -0.14000
H1879       H  0.64415863  0.53094162  0.08587404     0.12100
H1880       H  0.58583664  0.96675449  0.14485394     0.12100
H1881       H  0.62577342  0.46756694  0.19206211     0.12100
H1882       H  0.68761699  0.53142863  0.12963369     0.12100
C1883       C  0.85491988  0.52168988  0.11028038    -0.14000
C1884       C  0.88512618  0.50352241  0.11496792     0.08100
C1885       C  0.89046825  0.48669885  0.14566493    -0.14000
C1886       C  0.86576814  0.48736860  0.17091864    -0.14000
C1887       C  0.83557111  0.50558704  0.16635148     0.08100
C1888       C  0.83058215  0.52310945  0.13593449    -0.14000
H1889       H  0.85035713  0.53516310  0.08697087     0.12100
H1890       H  0.91583198  0.97281065  0.14757120     0.12100
H1891       H  0.87006440  0.47332357  0.19393479     0.12100
H1892       H  0.80761344  0.53753957  0.13191790     0.12100
C1893       C  0.98662194  0.62992698  0.33325218    -0.14000
C1894       C  0.00414343  0.66019537  0.33826931     0.08100
C1895       C  0.52089149  0.66524311  0.36909832    -0.14000
C1896       C  0.51964582  0.64082708  0.39449588    -0.14000
C1897       C  0.00243589  0.61043101  0.38921190     0.08100
C1898       C  0.98625226  0.60509498  0.35821048    -0.14000
H1899       H  0.97294740  0.62560069  0.31005004     0.12100
H1900       H  0.53466092  0.68828937  0.37361504     0.12100
H1901       H  0.53250006  0.64552807  0.41810633     0.12100
H1902       H  0.97256059  0.58202694  0.35357845     0.12100
C1903       C  0.97368462  0.86312636  0.33842583    -0.14000
C1904       C  0.99499044  0.83477600  0.34111397     0.08100
C1905       C  0.51591380  0.83145175  0.36946483    -0.14000
C1906       C  0.51608650  0.85644344  0.39433717    -0.14000
C1907       C  0.99586117  0.88545359  0.39085866     0.08100
C1908       C  0.97446326  0.88851155  0.36288646    -0.14000
H1909       H  0.95701749  0.86589660  0.31698087     0.12100
H1910       H  0.53254798  0.80979617  0.37198500     0.12100
H1911       H  0.53272357  0.85359925  0.41580577     0.12100
H1912       H  0.95825380  0.91044855  0.36008561     0.12100
C1913       C  0.52159228  0.83433760  0.13618500    -0.14000
C1914       C  0.00121884  0.83865504  0.16505255     0.08100
C1915       C  0.98123578  0.86795552  0.16794624    -0.14000
C1916       C  0.98205064  0.89265948  0.14284925    -0.14000
C1917       C  0.00203658  0.88811554  0.11381517     0.08100
C1918       C  0.52169843  0.85864820  0.11060887    -0.14000
H1919       H  0.53730517  0.81201842  0.13341653     0.12100
H1920       H  0.96491491  0.87166704  0.18964414     0.12100
H1921       H  0.96641033  0.91501702  0.14574887     0.12100
H1922       H  0.53745456  0.85465099  0.08854091     0.12100
C1923       C  0.98053310  0.63489675  0.16732902    -0.14000
C1924       C  0.00047265  0.66371119  0.16310306     0.08100
C1925       C  0.51915079  0.66747962  0.13314772    -0.14000
C1926       C  0.51784311  0.64286241  0.10788086    -0.14000
C1927       C  0.99848388  0.61370004  0.11254526     0.08100
C1928       C  0.97992691  0.60990126  0.14249275    -0.14000
H1929       H  0.96560485  0.63167382  0.19002800     0.12100
H1930       H  0.53480347  0.68943694  0.12942097     0.12100
H1931       H  0.53252673  0.64623105  0.08503600     0.12100
H1932       H  0.96459026  0.58776820  0.14647752     0.12100
N1933       N  0.50202988  0.75060192  0.69869188    -0.37300
N1934       N  0.50069789  0.80092031  0.75082821    -0.57900
N1935       N  0.50122740  0.74784919  0.80181627    -0.37300
N1936       N  0.49875936  0.69762916  0.74982109    -0.57900
C1937       C  0.49469353  0.77868786  0.68077028     0.26300
C1938       C  0.49167083  0.72394320  0.68031516     0.26300
C1939       C  0.49130400  0.77511549  0.81992074     0.26300
C1940       C  0.49206498  0.72024523  0.81950885     0.26300
C1941       C  0.51044309  0.81993718  0.72432154     0.34900
C1942       C  0.50837797  0.81861289  0.77885562     0.34900
C1943       C  0.50503837  0.67915972  0.72185628     0.34900
C1944       C  0.50622839  0.67763661  0.77639457     0.34900
C1945       C  0.47928687  0.76977752  0.65069850    -0.22600
C1946       C  0.47743413  0.73515247  0.65038734    -0.22600
C1947       C  0.47526674  0.76472171  0.84924184    -0.22600
C1948       C  0.47589171  0.73003312  0.84904777    -0.22600
C1949       C  0.52482333  0.84962068  0.73554558    -0.23600
C1950       C  0.52343445  0.84881891  0.77017238    -0.23600
C1951       C  0.51682818  0.64735796  0.73064271    -0.23600
C1952       C  0.51769269  0.64643629  0.76526752    -0.23600
C1953       C  0.50353204  0.81180297  0.69035311    -0.19000
C1954       C  0.49745606  0.68982447  0.68876846    -0.19000
C1955       C  0.49975334  0.68661334  0.81031069    -0.19000
C1956       C  0.49923458  0.80884791  0.81186330    -0.19000
H1957       H  0.47044904  0.78640727  0.63094161     0.13900
H1958       H  0.46712209  0.71994824  0.63025130     0.13900
H1959       H  0.46464545  0.78047289  0.86898522     0.13900
H1960       H  0.46569936  0.71387576  0.86848566     0.13900
H1961       H  0.53488785  0.86988994  0.72040687     0.12200
H1962       H  0.53226280  0.86834629  0.78700154     0.12200
H1963       H  0.52374514  0.62683294  0.71389476     0.12200
H1964       H  0.52536711  0.62507631  0.78042945     0.12200
H1965       H  0.51687568  0.74943535  0.72030071     0.25500
H1966       H  0.51697879  0.74810415  0.78071048     0.25500
O1967       O  0.99895584  0.59598473  0.55604743    -0.87200
O1968       O  0.00214860  0.90507868  0.55643971    -0.87300
O1969       O  0.94458563  0.49994948  0.59882389    -0.89000
O1970       O  0.55410714  0.49807970  0.59794674    -0.87800
O1971       O  0.59475934  0.49933575  0.55647313    -0.87400
O1972       O  0.90393358  0.00217788  0.55542206    -0.88700
O1973       O  0.99940288  0.94622372  0.59719831    -0.87200
O1974       O  0.99689242  0.55560670  0.59748970    -0.86800
Zr1975     Zr  0.99910620  0.50028410  0.57052658     2.84300
O1976       O  0.53376138  0.96577563  0.53520170    -1.08800
O1977       O  0.96504710  0.53452522  0.53652088    -1.09500
C1978       C  0.99749440  0.58645037  0.58707932     1.05900
C1979       C  0.00123237  0.91517592  0.58746305     1.05900
C1980       C  0.91351164  0.50154235  0.58920359     1.08900
C1981       C  0.58510138  0.49832104  0.58763355     1.06600
H1982       H  0.95111000  0.95279828  0.54925829     0.32200
O1983       O  0.96520909  0.96665670  0.53514165    -1.29700
H1984       H  0.54749517  0.54784141  0.55049682     0.31900
O1985       O  0.53340869  0.53394680  0.53643059    -1.31400
O1986       O  0.99908529  0.90214727  0.94658395    -0.87200
O1987       O  0.99903233  0.59493555  0.94589571    -0.88700
O1988       O  0.90329728  0.94488819  0.00097205    -0.87200
O1989       O  0.59529064  0.94476891  0.99891119    -0.87300
O1990       O  0.59348185  0.55462492  0.99990834    -0.87000
O1991       O  0.90184481  0.55464681  0.99982414    -0.86800
O1992       O  0.94419418  0.99832721  0.90417819    -0.87200
O1993       O  0.55334342  0.99723417  0.90370153    -0.86600
O1994       O  0.90327541  0.00067876  0.94529565    -0.87700
O1995       O  0.59403720  0.00149378  0.94464490    -0.86900
O1996       O  0.94448159  0.90391318  0.00183554    -0.87300
O1997       O  0.94266682  0.59548343  0.00170381    -0.87000
O1998       O  0.55229136  0.59570380  0.00209570    -0.86600
O1999       O  0.55466919  0.90373490  0.99658985    -0.87000
O2000       O  0.99692005  0.94262152  0.90528187    -0.87300
O2001       O  0.99586144  0.55360317  0.90536559    -0.88700
Zr2002     Zr  0.99961055  0.93105034  0.00078309     2.83100
Zr2003     Zr  0.99759380  0.56781760  0.00116002     2.83500
Zr2004     Zr  0.93121085  0.99937733  0.00001029     2.84100
Zr2005     Zr  0.56702493  0.99941423  0.99979393     2.83400
Zr2006     Zr  0.99877693  0.99816609  0.93199675     2.84200
O2007       O  0.53155745  0.53351416  0.96691832    -1.09300
O2008       O  0.96491991  0.96427966  0.96621353    -1.08800
C2009       C  0.99772214  0.91167779  0.91547850     1.05900
C2010       C  0.99753102  0.58473553  0.91492721     1.08500
C2011       C  0.91326735  0.91379576  0.00175420     1.06100
C2012       C  0.58555956  0.91386551  0.99674144     1.06400
C2013       C  0.58337151  0.58562367  0.00100675     1.06000
C2014       C  0.91173518  0.58558397  0.00037888     1.05600
C2015       C  0.91318657  0.99997125  0.91420693     1.06000
C2016       C  0.58424215  0.99957932  0.91366555     1.05500
H2017       H  0.94902683  0.54746390  0.95345288     0.32200
O2018       O  0.96315625  0.53360211  0.96767817    -1.30400
H2019       H  0.54739418  0.95075893  0.95180592     0.32200
O2020       O  0.53332661  0.96477321  0.96612836    -1.31700
N2021       N  0.74940948  0.50037039  0.70081381    -0.37300
N2022       N  0.80013355  0.49795382  0.75333067    -0.57900
N2023       N  0.74720930  0.49993702  0.80378555    -0.37300
N2024       N  0.69651781  0.49862086  0.75125156    -0.57900
C2025       C  0.77749962  0.49207743  0.68311452     0.26300
C2026       C  0.72254564  0.49119515  0.68201655     0.26300
C2027       C  0.77408864  0.49024098  0.82244548     0.26300
C2028       C  0.71916228  0.49177795  0.82135976     0.26300
C2029       C  0.81952343  0.50647678  0.72665007     0.34900
C2030       C  0.81836838  0.50496734  0.78115187     0.34900
C2031       C  0.67835307  0.50638057  0.72353216     0.34900
C2032       C  0.67725452  0.50746359  0.77806440     0.34900
C2033       C  0.76845940  0.47722456  0.65278409    -0.22600
C2034       C  0.73371279  0.47659046  0.65212339    -0.22600
C2035       C  0.76300496  0.47547309  0.85213219    -0.22600
C2036       C  0.72826217  0.47646407  0.85145575    -0.22600
C2037       C  0.85010165  0.51923934  0.73754337    -0.23600
C2038       C  0.84938143  0.51824805  0.77215768    -0.23600
C2039       C  0.64754588  0.52052502  0.73273305    -0.23600
C2040       C  0.64686194  0.52123961  0.76737927    -0.23600
C2041       C  0.81081599  0.50004736  0.69276562    -0.19000
C2042       C  0.68844832  0.49829129  0.69028729    -0.19000
C2043       C  0.68583752  0.50029973  0.81182625    -0.19000
C2044       C  0.80813066  0.49698341  0.81429055    -0.19000
H2045       H  0.78514453  0.46810588  0.63303332     0.13900
H2046       H  0.71845314  0.46691942  0.63173565     0.13900
H2047       H  0.77832693  0.46544604  0.87238149     0.13900
H2048       H  0.71162832  0.46730388  0.87106353     0.13900
H2049       H  0.87089329  0.52801231  0.72220105     0.12200
H2050       H  0.86946805  0.52618847  0.78874923     0.12200
H2051       H  0.62757337  0.52919601  0.71624307     0.12200
H2052       H  0.62621739  0.53045873  0.78289619     0.12200
H2053       H  0.74865251  0.51523507  0.72249156     0.25500
H2054       H  0.74792293  0.51503330  0.78233867     0.25500
N2055       N  0.74816527  0.80056336  0.99408929    -0.37300
N2056       N  0.80020273  0.74923191  0.99622203    -0.57900
N2057       N  0.74721780  0.69746590  0.99741258    -0.37300
N2058       N  0.69555876  0.74856230  0.99600033    -0.57900
C2059       C  0.77546796  0.81894051  0.98491201     0.26300
C2060       C  0.72049211  0.81805303  0.98407015     0.26300
C2061       C  0.77507997  0.67910108  0.00485196     0.26300
C2062       C  0.72017805  0.67853166  0.00576750     0.26300
C2063       C  0.81900739  0.77556193  0.98587352     0.34900
C2064       C  0.81760961  0.72114264  0.98742742     0.34900
C2065       C  0.67535565  0.77609555  0.99562726     0.34900
C2066       C  0.67497887  0.72164672  0.99836392     0.34900
C2067       C  0.76479905  0.84720831  0.96724065    -0.22600
C2068       C  0.73020378  0.84718782  0.96762835    -0.22600
C2069       C  0.76569221  0.64834375  0.01842349    -0.22600
C2070       C  0.73100782  0.64786032  0.01866906    -0.22600
C2071       C  0.84719297  0.76392335  0.96837582    -0.23600
C2072       C  0.84688075  0.72946202  0.97033649    -0.23600
C2073       C  0.64181719  0.76662405  0.99844292    -0.23600
C2074       C  0.64154518  0.73216167  0.99922844    -0.23600
C2075       C  0.80976730  0.80983387  0.99049116    -0.19000
C2076       C  0.68649415  0.80936707  0.99013740    -0.19000
C2077       C  0.68593116  0.68786889  0.00178844    -0.19000
C2078       C  0.80847683  0.68817492  0.99655945    -0.19000
H2079       H  0.78025384  0.86550921  0.95431350     0.13900
H2080       H  0.71396767  0.86597423  0.95613344     0.13900
H2081       H  0.78208840  0.62805497  0.02670599     0.13900
H2082       H  0.71550550  0.62734029  0.02756638     0.13900
H2083       H  0.86554985  0.77857587  0.95457507     0.12200
H2084       H  0.86555252  0.71241668  0.95964912     0.12200
H2085       H  0.61958814  0.78260197  0.99919453     0.12200
H2086       H  0.61915299  0.71684072  0.00097808     0.12200
H2087       H  0.74819990  0.77925612  0.00939394     0.25500
H2088       H  0.74694721  0.71989384  0.98386443     0.25500
C2089       C  0.89585931  0.85317251  0.00238428    -0.14000
C2090       C  0.88691614  0.88740871  0.00230401     0.08100
C2091       C  0.85252002  0.89600284  0.00357497    -0.14000
C2092       C  0.82785879  0.87103473  0.00187358    -0.14000
C2093       C  0.83655552  0.83671964  0.99653614     0.08100
C2094       C  0.87111622  0.82835558  0.00074094    -0.14000
H2095       H  0.92207851  0.84536765  0.00389255     0.12100
H2096       H  0.84451304  0.92206433  0.00605153     0.12100
H2097       H  0.80208939  0.87922098  0.00549908     0.12100
H2098       H  0.87979848  0.80276217  0.00368905     0.12100
C2099       C  0.85750245  0.60804407  0.97801597    -0.14000
C2100       C  0.88554724  0.61183603  0.99917582     0.08100
C2101       C  0.88850267  0.64094974  0.01905255    -0.14000
C2102       C  0.86331385  0.66569468  0.01830963    -0.14000
C2103       C  0.83521663  0.66188934  0.99720189     0.08100
C2104       C  0.83265581  0.63311227  0.97676710    -0.14000
H2105       H  0.85508049  0.58591813  0.96216262     0.12100
H2106       H  0.90996890  0.64421566  0.03558136     0.12100
H2107       H  0.86561149  0.68777180  0.03424801     0.12100
H2108       H  0.81131517  0.63005118  0.96004671     0.12100
C2109       C  0.61015543  0.86323693  0.96868822    -0.14000
C2110       C  0.61191833  0.88799820  0.99394300     0.08100
C2111       C  0.63896195  0.88786450  0.01660415    -0.14000
C2112       C  0.66327284  0.86232306  0.01500565    -0.14000
C2113       C  0.66122540  0.83710143  0.99024461     0.08100
C2114       C  0.63509877  0.83827068  0.96642111    -0.14000
H2115       H  0.58964409  0.86340828  0.95066491     0.12100
H2116       H  0.64068316  0.90694425  0.03611010     0.12100
H2117       H  0.68348209  0.86190078  0.03335728     0.12100
H2118       H  0.63360905  0.81936865  0.94672772     0.12100
C2119       C  0.63288787  0.61364773  0.97478493    -0.14000
C2120       C  0.60956378  0.61157145  0.00138161     0.08100
C2121       C  0.61186792  0.63395665  0.02870834    -0.14000
C2122       C  0.63736025  0.65812821  0.02949114    -0.14000
C2123       C  0.66015723  0.66085640  0.00244039     0.08100
C2124       C  0.65786073  0.63834905  0.97517336    -0.14000
H2125       H  0.63140256  0.59650202  0.95353174     0.11000
H2126       H  0.59422727  0.63239437  0.04959135     0.12100
H2127       H  0.63898678  0.67513277  0.05083054     0.12100
H2128       H  0.67524864  0.64014590  0.95410435     0.12100
C2129       C  0.85778365  0.02124245  0.89294378    -0.14000
C2130       C  0.88704958  0.00162515  0.88795318     0.08100
C2131       C  0.89143382  0.98406565  0.85744970    -0.14000
C2132       C  0.86326187  0.47580298  0.83751827    -0.14000
C2133       C  0.83400463  0.49575537  0.84136905     0.08100
C2134       C  0.82998807  0.51545824  0.87059299    -0.14000
H2135       H  0.85410237  0.03533852  0.91612912     0.12100
H2136       H  0.91379050  0.96872248  0.85311207     0.12100
H2137       H  0.86668538  0.46017053  0.81530469     0.12100
H2138       H  0.80774046  0.53118708  0.87395236     0.12100
C2139       C  0.63808122  0.51953026  0.89272506    -0.14000
C2140       C  0.61067258  0.00006616  0.88763199     0.08100
C2141       C  0.60826590  0.97938072  0.85900121    -0.14000
C2142       C  0.63391171  0.97934834  0.83475169    -0.14000
C2143       C  0.65894266  0.50064970  0.83807440     0.08100
C2144       C  0.66262469  0.52024749  0.86736353    -0.14000
H2145       H  0.64149072  0.53476350  0.91515833     0.12100
H2146       H  0.58686021  0.96287557  0.85570754     0.12100
H2147       H  0.63188430  0.96295354  0.81297071     0.12100
H2148       H  0.68466426  0.53589555  0.87064989     0.12100
C2149       C  0.64136556  0.51626430  0.60895894    -0.14000
C2150       C  0.61172429  0.49761817  0.61351970     0.08100
C2151       C  0.60774271  0.47844088  0.64297775    -0.14000
C2152       C  0.63307197  0.47789356  0.66745097    -0.14000
C2153       C  0.66237580  0.49724953  0.66331031     0.08100
C2154       C  0.66628852  0.51639709  0.63381500    -0.14000
H2155       H  0.64487159  0.53138446  0.58650773     0.12100
H2156       H  0.58247647  0.96821086  0.64908820     0.12100
H2157       H  0.62966362  0.46269378  0.68986257     0.12100
H2158       H  0.68851842  0.53171910  0.63021106     0.12100
C2159       C  0.85820341  0.52133565  0.61246828    -0.14000
C2160       C  0.88754007  0.50158198  0.61580829     0.08100
C2161       C  0.89184192  0.48160661  0.64470347    -0.14000
C2162       C  0.86684789  0.48090431  0.66960821    -0.14000
C2163       C  0.83757988  0.50084952  0.66641854     0.08100
C2164       C  0.83359378  0.52127172  0.63778069    -0.14000
H2165       H  0.85454635  0.53711983  0.59048936     0.12100
H2166       H  0.91541038  0.97008848  0.64795171     0.12100
H2167       H  0.87024833  0.46472291  0.69133584     0.12100
H2168       H  0.81128925  0.53698835  0.63497829     0.12100
C2169       C  0.97933681  0.63122645  0.83347333    -0.14000
C2170       C  0.99942886  0.66006329  0.83695876     0.08100
C2171       C  0.51856144  0.66407282  0.86648899    -0.14000
C2172       C  0.51747920  0.63986923  0.89207751    -0.14000
C2173       C  0.99788644  0.61076042  0.88828237     0.08100
C2174       C  0.97891370  0.60659870  0.85869685    -0.14000
H2175       H  0.96389412  0.62784244  0.81123989     0.12100
H2176       H  0.53424972  0.68607349  0.86975648     0.12100
H2177       H  0.53245743  0.64358331  0.91458142     0.12100
H2178       H  0.96332304  0.58454185  0.85534585     0.12100
C2179       C  0.97953222  0.86492288  0.83439445    -0.14000
C2180       C  0.99796141  0.83487267  0.83897412     0.08100
C2181       C  0.51565165  0.82994612  0.86925074    -0.14000
C2182       C  0.51497251  0.85462590  0.89444786    -0.14000
C2183       C  0.99729997  0.88504686  0.88944847     0.08100
C2184       C  0.97958733  0.88998146  0.85920829    -0.14000
H2185       H  0.96539153  0.86910185  0.81141169     0.12100
H2186       H  0.53021718  0.80707797  0.87323905     0.12100
H2187       H  0.52897190  0.85030265  0.91749111     0.12100
H2188       H  0.96550876  0.91309481  0.85492062     0.12100
C2189       C  0.52136746  0.83419627  0.63369384    -0.14000
C2190       C  0.00389428  0.83892443  0.66429955     0.08100
C2191       C  0.98594393  0.86921549  0.66956132    -0.14000
C2192       C  0.98560190  0.89427795  0.64484149    -0.14000
C2193       C  0.00236775  0.88912157  0.61395435     0.08100
C2194       C  0.52019781  0.85883798  0.60856871    -0.14000
H2195       H  0.53561674  0.81120901  0.62911871     0.12100
H2196       H  0.97190815  0.87333848  0.69272735     0.12100
H2197       H  0.97152565  0.91735453  0.64953748     0.12100
H2198       H  0.53359498  0.85440895  0.58507666     0.12100
C2199       C  0.97391716  0.63672826  0.66443315    -0.14000
C2200       C  0.99596836  0.66413303  0.66169517     0.08100
C2201       C  0.51771164  0.66633595  0.63379637    -0.14000
C2202       C  0.51780255  0.64117824  0.60920471    -0.14000
C2203       C  0.99665390  0.61318105  0.61259731     0.08100
C2204       C  0.97457204  0.61114667  0.64022615    -0.14000
H2205       H  0.95673668  0.63489024  0.68566615     0.12100
H2206       H  0.53493975  0.68727379  0.63138889     0.12100
H2207       H  0.53497628  0.64312196  0.58797017     0.12100
H2208       H  0.95771279  0.58993910  0.64288733     0.12100
loop_ 
_geom_bond_atom_site_label_1 
_geom_bond_atom_site_label_2 
_geom_bond_distance 
_geom_bond_site_symmetry_2 
_ccdc_geom_bond_type 
N1            C6   1.354   1_455  A
N1            C5   1.353   1_455  A
N1           H33   1.041       .  S
N2            C9   1.352       .  A
N2           C10   1.352       .  A
N3            C8   1.353   1_455  A
N3            C7   1.355   1_455  A
N3           H34   1.042       .  S
N4           C11   1.351       .  A
N4           C12   1.350       .  A
C5           C13   1.387       .  A
C5           C21   1.415   1_655  A
C6           C22   1.416   1_655  A
C6           C14   1.387       .  A
C7           C15   1.386       .  A
C7           C24   1.416   1_655  A
C8           C23   1.415   1_655  A
C8           C16   1.387       .  A
C9           C21   1.414       .  A
C9           C17   1.386       .  A
C10          C24   1.414       .  A
C10          C18   1.386       .  A
C11          C19   1.387       .  A
C11          C22   1.413       .  A
C12          C20   1.387       .  A
C12          C23   1.413       .  A
C13          C14   1.377       .  A
C13          H25   1.082       .  S
C14          H26   1.082       .  S
C15          C16   1.376       .  A
C15          H27   1.082       .  S
C16          H28   1.082       .  S
C17          C18   1.373       .  A
C17          H29   1.082       .  S
C18          H30   1.082       .  S
C19          C20   1.374       .  A
C19          H31   1.082       .  S
C20          H32   1.082       .  S
C21        C1362   1.492       .  S
C22        C1372   1.490   1_455  S
C23        C1342   1.489       .  S
C24        C1352   1.498   1_455  S
O35          C46   1.291       .  A
O35        Zr347   2.432   1_554  S
O36          C47   1.292       .  A
O36        Zr346   2.438       .  S
O37          C48   1.291   1_565  A
O37         Zr43   2.431       .  S
O38          C49   1.294   1_565  A
O38       Zr1147   2.445   1_455  S
O39          C49   1.291       .  A
O39        Zr901   2.434   1_544  S
O40         C600   1.293       .  A
O40        Zr348   2.443       .  S
O41          C47   1.293       .  A
O41        Zr595   2.440       .  S
O42          C46   1.294       .  A
O42         Zr43   2.447   1_545  S
Zr43       O1142   2.445       .  S
Zr43        O593   2.439       .  S
Zr43         O45   2.340   1_565  S
Zr43       O1700   2.340       .  S
Zr43       O1157   2.333   1_565  S
Zr43        O603   2.339       .  S
O44       Zr1699   2.340   1_455  S
O44       Zr1450   2.335   1_455  S
O44        Zr349   2.339       .  S
O45        Zr347   2.339   1_554  S
O45        Zr900   2.338   1_545  S
C46         C271   1.474       .  S
C47         C261   1.476       .  S
C48         C228   1.469       .  S
C48         O592   1.290       .  A
C49         C218   1.475       .  S
H50          O51   0.966       .  S
O51        Zr595   2.342       .  S
O51        Zr346   2.345       .  S
O51        Zr348   2.342       .  S
H52          O53   0.966       .  S
O53       Zr1147   2.333   1_445  S
O53       Zr1451   2.335   1_454  S
O53        Zr901   2.333   1_544  S
O54          C77   1.293       .  A
O54         Zr70   2.441       .  S
O55          C78   1.294       .  A
O55         Zr71   2.444       .  S
O56          C79   1.293       .  A
O56         Zr72   2.442       .  S
O57          C80   1.291       .  A
O57         Zr73   2.431       .  S
O58          C81   1.292       .  A
O58        Zr625   2.438   1_545  S
O59          C82   1.291       .  A
O59        Zr624   2.430       .  S
O60          C83   1.293       .  A
O60         Zr74   2.442       .  S
O61          C84   1.290       .  A
O61       Zr1178   2.424   1_455  S
O62          C83   1.292       .  A
O62         Zr72   2.441       .  S
O63          C84   1.291       .  A
O63         Zr73   2.431       .  S
O64          C79   1.293       .  A
O64         Zr70   2.440       .  S
O65          C82   1.292       .  A
O65         Zr71   2.437       .  S
O66          C81   1.293       .  A
O66       Zr1175   2.446       .  S
O67          C80   1.292       .  A
O67       Zr1174   2.437   1_455  S
O68          C77   1.294       .  A
O68         Zr74   2.449       .  S
O69          C78   1.293       .  A
O69        Zr626   2.438   1_545  S
Zr70        O312   2.437       .  S
Zr70       O1171   2.437       .  S
Zr70         O76   2.344       .  S
Zr70       O1424   2.335       .  S
Zr70        O327   2.342       .  S
Zr70       O1192   2.341       .  S
Zr71        O311   2.437       .  S
Zr71       O1170   2.446       .  S
Zr71         O86   2.350       .  S
Zr71        O321   2.341       .  S
Zr71       O1433   2.338       .  S
Zr71       O1179   2.339       .  S
Zr72        O316   2.440       .  S
Zr72        O611   2.437       .  S
Zr72         O76   2.340       .  S
Zr72        O873   2.340       .  S
Zr72        O327   2.346       .  S
Zr72        O638   2.339       .  S
Zr73        O867   2.439       .  S
Zr73        O610   2.433       .  S
Zr73         O88   2.345       .  S
Zr73        O320   2.338       .  S
Zr73        O881   2.338       .  S
Zr73        O627   2.334       .  S
Zr74       O1165   2.424       .  S
Zr74        O621   2.444       .  S
Zr74         O76   2.334       .  S
Zr74       O1731   2.345       .  S
Zr74       O1192   2.344       .  S
Zr74        O638   2.336       .  S
O75       Zr1175   2.339       .  S
O75        Zr625   2.337   1_545  S
O75       Zr1730   2.349   1_445  S
C77         C251   1.481       .  S
C78         C241   1.475       .  S
C79         C158   1.475       .  S
C80         C178   1.469       .  S
C81         C188   1.478       .  S
C82         C168   1.468       .  S
C83         C198   1.480       .  S
C84         C208   1.465       .  S
H85          O86   0.965       .  S
O86        Zr624   2.342       .  S
O86        Zr626   2.343   1_545  S
H87          O88   0.965       .  S
O88       Zr1174   2.341   1_455  S
O88       Zr1178   2.344   1_455  S
N89          C94   1.352   1_545  A
N89          C93   1.350   1_545  A
N89         H121   1.042       .  S
N90          C97   1.349       .  A
N90          C98   1.351       .  A
N91          C96   1.352   1_545  A
N91          C95   1.354   1_545  A
N91         H122   1.042       .  S
N92          C99   1.351       .  A
N92         C100   1.350       .  A
C93         C101   1.388       .  A
C93         C109   1.413   1_565  A
C94         C110   1.411   1_565  A
C94         C102   1.386       .  A
C95         C103   1.387       .  A
C95         C112   1.415   1_565  A
C96         C111   1.414       .  A
C96         C104   1.387       .  A
C97         C109   1.413       .  A
C97         C105   1.387       .  A
C98         C112   1.412       .  A
C98         C106   1.386       .  A
C99         C107   1.385       .  A
C99         C110   1.411       .  A
C100        C108   1.387       .  A
C100        C111   1.412   1_545  A
C101        C102   1.377       .  A
C101        H113   1.082       .  S
C102        H114   1.082       .  S
C103        C104   1.377       .  A
C103        H115   1.082       .  S
C104        H116   1.082       .  S
C105        C106   1.375       .  A
C105        H117   1.082       .  S
C106        H118   1.082       .  S
C107        C108   1.375       .  A
C107        H119   1.082       .  S
C108        H120   1.082       .  S
C109        C231   1.487       .  S
C110        C221   1.490       .  S
C111        C211   1.490       .  S
C112        C201   1.495   1_545  S
N123        C128   1.351       .  A
N123        C127   1.354       .  A
N123        H155   1.041       .  S
N124        C131   1.351       .  A
N124        C132   1.349       .  A
N125        C130   1.354       .  A
N125        C129   1.351       .  A
N125        H156   1.041       .  S
N126        C133   1.350       .  A
N126        C134   1.352       .  A
C127        C135   1.386       .  A
C127        C143   1.414       .  A
C128        C144   1.414       .  A
C128        C136   1.388       .  A
C129        C137   1.387       .  A
C129        C146   1.413       .  A
C130        C145   1.415       .  A
C130        C138   1.387       .  A
C131        C143   1.411       .  A
C131        C139   1.386       .  A
C132        C146   1.411       .  A
C132        C140   1.387       .  A
C133        C141   1.387       .  A
C133        C144   1.413       .  A
C134        C142   1.386       .  A
C134        C145   1.414       .  A
C135        C136   1.375       .  A
C135        H147   1.082       .  S
C136        H148   1.082       .  S
C137        C138   1.377       .  A
C137        H149   1.082       .  S
C138        H150   1.082       .  S
C139        C140   1.372       .  A
C139        H151   1.082       .  S
C140        H152   1.082       .  S
C141        C142   1.374       .  A
C141        H153   1.082       .  S
C142        H154   1.082       .  S
C143        C161   1.492       .  S
C144        C181   1.485       .  S
C145        C191   1.494       .  S
C146        C171   1.483       .  S
C157        C158   1.404       .  A
C157        C162   1.399       .  A
C157        H163   1.083       .  S
C158        C159   1.404       .  A
C159        C160   1.398       .  A
C159        H164   1.083       .  S
C160        C161   1.406       .  A
C160        H165   1.083       .  S
C161        C162   1.405       .  A
C162        H166   1.083       .  S
C167        C168   1.403       .  A
C167        C172   1.395       .  A
C167        H173   1.083       .  S
C168        C169   1.403       .  A
C169        C170   1.396       .  A
C169        H174   1.083       .  S
C170        C171   1.404       .  A
C170        H175   1.083       .  S
C171        C172   1.403       .  A
C172        H176   1.083       .  S
C177        C178   1.403       .  A
C177        C182   1.396       .  A
C177        H183   1.083       .  S
C178        C179   1.403       .  A
C179        C180   1.396       .  A
C179        H184   1.083       .  S
C180        C181   1.404       .  A
C180        H185   1.083       .  S
C181        C182   1.405       .  A
C182        H186   1.083       .  S
C187        C188   1.404       .  A
C187        C192   1.399       .  A
C187        H193   1.083       .  S
C188        C189   1.405       .  A
C189        C190   1.400       .  A
C189        H194   1.083       .  S
C190        C191   1.406       .  A
C190        H195   1.083       .  S
C191        C192   1.406       .  A
C192        H196   1.083       .  S
C197        C198   1.406       .  A
C197        C754   1.400       .  A
C197        H203   1.083       .  S
C198        C199   1.404       .  A
C199        C752   1.398       .  A
C199        H204   1.083       .  S
C200        C201   1.407       .  A
C200        C751   1.401       .  A
C200        H205   1.083       .  S
C201        C202   1.405   1_565  A
C202        C749   1.398       .  A
C202        H206   1.083       .  S
C207        C212   1.397       .  A
C207        C760   1.404   1_545  A
C207        H213   1.083       .  S
C208        C209   1.402       .  A
C208        C759   1.403       .  A
C209        C210   1.393       .  A
C209        H214   1.083       .  S
C210        C763   1.403       .  A
C210        H215   1.083       .  S
C211        C212   1.405   1_565  A
C211        C762   1.405       .  A
C212        H216   1.083       .  S
C217        C218   1.405       .  A
C217        C222   1.399       .  A
C217        H223   1.083       .  S
C218        C219   1.403   1_545  A
C219        C220   1.397       .  A
C219        H776   1.083       .  S
C220        C221   1.405   1_565  A
C220        H225   1.083       .  S
C221        C222   1.406       .  A
C222        H226   1.083       .  S
H224        C771   1.083       .  S
C227        C228   1.404       .  A
C227        C232   1.396       .  A
C227        H233   1.083       .  S
C228        C229   1.403   1_545  A
C229        C230   1.393       .  A
C229        H786   1.083       .  S
C230        C231   1.404   1_565  A
C230        H235   1.083       .  S
C231        C232   1.406       .  A
C232        H236   1.083       .  S
H234        C781   1.083       .  S
C237        C238   1.405       .  A
C237        C242   1.398       .  A
C237        H243   1.083       .  S
C238       C1343   1.405       .  A
C238       C1127   1.489       .  S
C239        C240   1.398       .  A
C239       C1342   1.405       .  A
C239        H244   1.083       .  S
C240       C1345   1.404       .  A
C240        H245   1.083       .  S
C241        C242   1.404       .  A
C241       C1344   1.404       .  A
C242        H246   1.083       .  S
C247        C248   1.407       .  A
C247        C252   1.399       .  A
C247        H253   1.083       .  S
C248       C1353   1.407       .  A
C248       C1128   1.498       .  S
C249        C250   1.401       .  A
C249       C1352   1.407   1_455  A
C249        H254   1.083       .  S
C250       C1355   1.406   1_455  A
C250        H255   1.083       .  S
C251        C252   1.404       .  A
C251       C1354   1.406       .  A
C252        H256   1.083       .  S
C257        C262   1.399       .  A
C257       C1362   1.406       .  A
C257        H263   1.083       .  S
C258        C259   1.405       .  A
C258       C1361   1.406       .  A
C258       C1125   1.492       .  S
C259        C260   1.398       .  A
C259        H264   1.083       .  S
C260        C261   1.404       .  A
C260        H265   1.083       .  S
C261       C1366   1.405       .  A
C262       C1365   1.405       .  A
C262        H266   1.083       .  S
C267        C268   1.406       .  A
C267        C272   1.399       .  A
C267        H273   1.083       .  S
C268       C1373   1.404       .  A
C268       C1126   1.490       .  S
C269        C270   1.397       .  A
C269       C1372   1.404   1_455  A
C269        H274   1.083       .  S
C270       C1375   1.404   1_455  A
C270        H275   1.083       .  S
C271        C272   1.403       .  A
C271       C1374   1.404       .  A
C272        H276   1.083       .  S
N277        C282   1.353   1_455  A
N277        C281   1.352   1_455  A
N277        H309   1.042       .  S
N278        C285   1.350   1_655  A
N278        C286   1.350   1_655  A
N279        C284   1.352       .  A
N279        C283   1.352       .  A
N279        H310   1.042   1_655  S
N280        C287   1.350   1_655  A
N280        C288   1.350   1_655  A
C281        C289   1.387       .  A
C281        C297   1.413   1_655  A
C282        C298   1.414       .  A
C282        C290   1.387       .  A
C283        C291   1.387       .  A
C283        C300   1.414       .  A
C284        C299   1.414       .  A
C284        C292   1.387       .  A
C285        C297   1.411       .  A
C285        C293   1.386       .  A
C286        C300   1.412   1_455  A
C286        C294   1.387       .  A
C287        C295   1.386       .  A
C287        C298   1.412   1_455  A
C288        C296   1.386       .  A
C288        C299   1.412   1_455  A
C289        C290   1.377       .  A
C289        H301   1.082       .  S
C290        H302   1.082       .  S
C291        C292   1.378       .  A
C291        H303   1.082       .  S
C292        H304   1.082       .  S
C293        C294   1.374       .  A
C293        H305   1.082       .  S
C294        H306   1.082       .  S
C295        C296   1.374       .  A
C295        H307   1.082       .  S
C296        H308   1.082       .  S
C297       C1638   1.488       .  S
C298       C1648   1.493       .  S
C299       C1618   1.490       .  S
C300       C1628   1.488       .  S
O311        C322   1.292       .  A
O312        C323   1.292       .  A
O313        C324   1.291   1_565  A
O313       Zr319   2.432   1_565  S
O314        C325   1.292       .  A
O314      Zr1423   2.437   1_465  S
O315        C325   1.293       .  A
O315       Zr625   2.442       .  S
O316        C876   1.293       .  A
O317        C323   1.291       .  A
O317       Zr871   2.435       .  S
O318        C322   1.294       .  A
O318       Zr319   2.449       .  S
Zr319      O1418   2.437   1_545  S
Zr319       O869   2.433   1_545  S
Zr319      O1976   2.342   1_545  S
Zr319       O321   2.338       .  S
Zr319      O1433   2.340       .  S
Zr319       O879   2.339   1_545  S
O320      Zr1975   2.336   1_455  S
O320      Zr1174   2.335   1_455  S
O321       Zr624   2.340       .  S
C322        C547   1.479       .  S
C323        C537   1.472       .  S
C324        C504   1.473       .  S
C324        O868   1.292       .  A
C325        C494   1.477       .  S
H326        O327   0.965       .  S
O327       Zr871   2.338       .  S
H328        O329   0.965       .  S
O329      Zr1423   2.340   1_455  S
O329      Zr1175   2.338       .  S
O329       Zr625   2.339   1_545  S
O330        C353   1.291       .  A
O330       Zr346   2.430   1_556  S
O331        C354   1.293       .  A
O331       Zr347   2.439       .  S
O332        C355   1.295       .  A
O332       Zr348   2.450       .  S
O333        C356   1.291       .  A
O333       Zr349   2.435       .  S
O334        C357   1.291       .  A
O334       Zr901   2.437   1_544  S
O335        C358   1.291       .  A
O335       Zr900   2.431   1_546  S
O336        C359   1.292       .  A
O336       Zr350   2.437       .  S
O337        C360   1.292       .  A
O337      Zr1454   2.435   1_455  S
O338        C359   1.291       .  A
O338       Zr348   2.430   1_556  S
O339        C360   1.293       .  A
O339       Zr349   2.439   1_556  S
O340        C355   1.292       .  A
O340       Zr346   2.433       .  S
O341        C358   1.293   1_554  A
O341       Zr347   2.440   1_554  S
O342        C357   1.293       .  A
O342      Zr1451   2.445   1_454  S
O343        C356   1.290       .  A
O343      Zr1450   2.429   1_455  S
O344        C353   1.292       .  A
O344       Zr350   2.440       .  S
O345        C354   1.293       .  A
O345       Zr902   2.438   1_545  S
Zr346      O1447   2.429       .  S
Zr346      O1148   2.335       .  S
Zr346       O352   2.334   1_554  S
Zr346      O1468   2.339   1_554  S
Zr347      O1446   2.445   1_556  S
Zr347      O1157   2.335   1_556  S
Zr347      O1455   2.340       .  S
Zr347       O362   2.342       .  S
Zr348       O887   2.433   1_554  S
Zr348       O597   2.341       .  S
Zr348       O352   2.333   1_554  S
Zr348       O914   2.345   1_554  S
Zr349       O591   2.445       .  S
Zr349       O886   2.436   1_554  S
Zr349       O605   2.336       .  S
Zr349       O903   2.339   1_554  S
Zr349       O364   2.344   1_554  S
Zr350      O1441   2.434       .  S
Zr350       O897   2.444       .  S
Zr350      O2007   2.344       .  S
Zr350       O352   2.333       .  S
Zr350      O1468   2.342       .  S
Zr350       O914   2.336       .  S
O351      Zr1451   2.340   1_455  S
O351       Zr901   2.338   1_545  S
O351      Zr2006   2.349   1_445  S
C353        C527   1.473       .  S
C354        C517   1.475       .  S
C355        C434   1.487   1_554  S
C356        C454   1.465   1_554  S
C357        C464   1.472       .  S
C358        C444   1.477   1_556  S
C359        C474   1.471       .  S
C360        C484   1.472       .  S
H361        O362   0.966       .  S
O362       Zr900   2.335   1_546  S
O362       Zr902   2.337   1_545  S
H363        O364   0.965       .  S
O364      Zr1450   2.339   1_456  S
O364      Zr1454   2.342   1_455  S
N365        C370   1.353   1_545  A
N365        C369   1.352   1_545  A
N365        H397   1.042       .  S
N366        C373   1.349       .  A
N366        C374   1.349       .  A
N367        C372   1.351   1_545  A
N367        C371   1.351   1_545  A
N367        H398   1.042       .  S
N368        C375   1.350       .  A
N368        C376   1.349       .  A
C369        C377   1.387       .  A
C369        C385   1.415   1_565  A
C370        C386   1.415       .  A
C370        C378   1.386       .  A
C371        C379   1.388       .  A
C371        C388   1.414   1_565  A
C372        C387   1.411   1_565  A
C372        C380   1.386       .  A
C373        C385   1.412       .  A
C373        C381   1.387       .  A
C374        C388   1.411       .  A
C374        C382   1.386       .  A
C375        C383   1.387       .  A
C375        C386   1.411   1_545  A
C376        C384   1.385       .  A
C376        C387   1.408       .  A
C377        C378   1.377       .  A
C377        H389   1.082       .  S
C378        H390   1.082       .  S
C379        C380   1.377       .  A
C379        H391   1.082       .  S
C380        H392   1.082       .  S
C381        C382   1.374       .  A
C381        H393   1.082       .  S
C382        H394   1.082       .  S
C383        C384   1.373       .  A
C383        H395   1.082       .  S
C384        H396   1.082       .  S
C385        C507   1.489       .  S
C386        C497   1.494       .  S
C387        C487   1.483       .  S
C388        C477   1.487       .  S
N399        C404   1.355       .  A
N399        C403   1.359       .  A
N399        H431   1.040   1_556  S
N400        C407   1.352   1_554  A
N400        C408   1.351   1_554  A
N401        C406   1.353       .  A
N401        C405   1.353       .  A
N401        H432   1.041   1_554  S
N402        C409   1.350       .  A
N402        C410   1.353       .  A
C403        C411   1.387       .  A
C403        C419   1.425       .  A
C404        C420   1.417       .  A
C404        C412   1.386       .  A
C405        C413   1.388       .  A
C405        C422   1.415       .  A
C406        C421   1.414       .  A
C406        C414   1.386       .  A
C407        C419   1.418       .  A
C407        C415   1.387       .  A
C408        C422   1.411   1_556  A
C408        C416   1.383       .  A
C409        C417   1.388       .  A
C409        C420   1.416   1_554  A
C410        C418   1.386       .  A
C410        C421   1.416       .  A
C411        C412   1.370       .  A
C411        H423   1.082       .  S
C412        H424   1.083       .  S
C413        C414   1.376       .  A
C413        H425   1.082       .  S
C414        H426   1.083       .  S
C415        C416   1.371       .  A
C415        H427   1.082       .  S
C416        H428   1.082       .  S
C417        C418   1.368       .  A
C417        H429   1.081       .  S
C418        H430   1.080       .  S
C419        C437   1.533       .  S
C420        C457   1.485       .  S
C421        C467   1.492       .  S
C422        C447   1.492       .  S
C433        C434   1.403       .  A
C433        C438   1.400       .  A
C433        H439   1.083       .  S
C434        C435   1.400   1_556  A
C435        C436   1.398       .  A
C435        H440   1.083       .  S
C436        C437   1.417   1_554  A
C436        H441   1.078       .  S
C437        C438   1.418       .  A
C438        H442   1.074       .  S
C443        C444   1.406   1_556  A
C443        C448   1.397       .  A
C443        H449   1.083       .  S
C444        C445   1.404       .  A
C445        C446   1.396       .  A
C445        H450   1.083       .  S
C446        C447   1.406       .  A
C446        H451   1.083       .  S
C447        C448   1.405   1_554  A
C448        H452   1.083       .  S
C453        C454   1.403       .  A
C453        C458   1.396       .  A
C453        H459   1.084       .  S
C454        C455   1.401   1_556  A
C455        C456   1.395       .  A
C455        H460   1.083       .  S
C456        C457   1.404   1_554  A
C456        H461   1.083       .  S
C457        C458   1.404       .  A
C458        H462   1.083       .  S
C463        C464   1.401   1_556  A
C463        C468   1.396       .  A
C463        H469   1.083       .  S
C464        C465   1.405       .  A
C465        C466   1.401       .  A
C465        H470   1.083       .  S
C466        C467   1.406       .  A
C466        H471   1.083       .  S
C467        C468   1.405   1_554  A
C468        H472   1.083       .  S
C473        C474   1.404       .  A
C473       C1030   1.396       .  A
C473        H479   1.083       .  S
C474        C475   1.403       .  A
C475       C1028   1.397       .  A
C475        H480   1.083       .  S
C476       C1027   1.396       .  A
C476        C477   1.405   1_565  A
C476        H481   1.083       .  S
C477        C478   1.405       .  A
C478       C1025   1.396       .  A
C478        H482   1.083       .  S
C483       C1036   1.403       .  A
C483        C488   1.395       .  A
C483        H489   1.083       .  S
C484       C1035   1.404       .  A
C484        C485   1.404       .  A
C485        C486   1.397       .  A
C485        H490   1.083       .  S
C486       C1039   1.404       .  A
C486        H491   1.083       .  S
C487       C1038   1.405   1_545  A
C487        C488   1.403       .  A
C488        H492   1.083       .  S
C493        C494   1.403   1_545  A
C493        C498   1.396       .  A
C493        H499   1.083       .  S
C494        C495   1.405       .  A
C495        C496   1.399       .  A
C495       H1052   1.083       .  S
C496        C497   1.407       .  A
C496        H501   1.083       .  S
C497        C498   1.405   1_565  A
C498        H502   1.083       .  S
H500       C1047   1.083       .  S
C503        C504   1.404       .  A
C503        C508   1.396       .  A
C503        H509   1.083       .  S
C504        C505   1.405   1_545  A
C505        C506   1.397       .  A
C505       H1062   1.083       .  S
C506        C507   1.406   1_565  A
C506        H511   1.083       .  S
C507        C508   1.404       .  A
C508        H512   1.083       .  S
H510       C1057   1.083       .  S
C513        C514   1.406       .  A
C513        C518   1.398       .  A
C513        H519   1.083       .  S
C514       C1619   1.404       .  A
C514       C1403   1.490       .  S
C515       C1618   1.404   1_455  A
C515        C516   1.396       .  A
C515        H520   1.083       .  S
C516       C1621   1.404   1_455  A
C516        H521   1.083       .  S
C517       C1620   1.404       .  A
C517        C518   1.405       .  A
C518        H522   1.083       .  S
C523        C524   1.406       .  A
C523        C528   1.397       .  A
C523        H529   1.083       .  S
C524       C1629   1.404       .  A
C524       C1404   1.488       .  S
C525       C1628   1.404   1_455  A
C525        C526   1.396       .  A
C525        H530   1.083       .  S
C526       C1631   1.404   1_455  A
C526        H531   1.083       .  S
C527       C1630   1.404       .  A
C527        C528   1.404       .  A
C528        H532   1.083       .  S
C533       C1638   1.405       .  A
C533        C538   1.398       .  A
C533        H539   1.083       .  S
C534       C1637   1.405       .  A
C534        C535   1.404       .  A
C534       C1401   1.488       .  S
C535        C536   1.396       .  A
C535        H540   1.083       .  S
C536        C537   1.404       .  A
C536        H541   1.083       .  S
C537       C1642   1.404       .  A
C538       C1641   1.404       .  A
C538        H542   1.083       .  S
C543        C544   1.406       .  A
C543        C548   1.399       .  A
C543        H549   1.083       .  S
C544       C1649   1.405       .  A
C544       C1402   1.493       .  S
C545       C1648   1.405   1_455  A
C545        C546   1.399       .  A
C545        H550   1.083       .  S
C546       C1651   1.405   1_455  A
C546        H551   1.083       .  S
C547       C1650   1.405       .  A
C547        C548   1.404       .  A
C548        H552   1.083       .  S
N553        C558   1.353   1_455  A
N553        C557   1.354   1_455  A
N553        H585   1.041       .  S
N554        C561   1.352   1_655  A
N554        C562   1.350   1_655  A
N555        C560   1.354   1_455  A
N555        C559   1.352   1_455  A
N555        H586   1.042       .  S
N556        C563   1.350       .  A
N556        C564   1.352       .  A
C557        C565   1.386       .  A
C557        C573   1.414   1_655  A
C558        C574   1.415   1_655  A
C558        C566   1.388       .  A
C559        C567   1.386       .  A
C559        C576   1.413       .  A
C560        C575   1.415   1_655  A
C560        C568   1.387       .  A
C561        C573   1.413       .  A
C561        C569   1.386       .  A
C562        C576   1.412   1_455  A
C562        C570   1.387       .  A
C563        C571   1.387       .  A
C563        C574   1.414       .  A
C564        C572   1.386       .  A
C564        C575   1.414       .  A
C565        C566   1.376       .  A
C565        H577   1.082       .  S
C566        H578   1.082       .  S
C567        C568   1.376       .  A
C567        H579   1.082       .  S
C568        H580   1.082       .  S
C569        C570   1.373       .  A
C569        H581   1.082       .  S
C570        H582   1.082       .  S
C571        C572   1.374       .  A
C571        H583   1.082       .  S
C572        H584   1.082       .  S
C573       C1914   1.495       .  S
C574       C1924   1.490       .  S
C575       C1894   1.496       .  S
C576       C1904   1.487       .  S
O587        C598   1.291       .  A
O587       Zr899   2.433       .  S
O588        C599   1.294       .  A
O588       Zr898   2.448       .  S
O589        C600   1.292       .  A
O589       Zr595   2.438       .  S
O590        C601   1.292       .  A
O590      Zr1699   2.435   1_455  S
O591        C601   1.294       .  A
O592       Zr900   2.427   1_545  S
O593        C599   1.293       .  A
O594        C598   1.294       .  A
O594       Zr595   2.445       .  S
Zr595      O1694   2.435       .  S
Zr595      O1148   2.340       .  S
Zr595       O597   2.338       .  S
Zr595      O1709   2.343       .  S
O596      Zr1147   2.340   1_455  S
O596      Zr2002   2.341   1_455  S
O596       Zr901   2.343   1_554  S
O597       Zr899   2.346       .  S
C598        C823   1.474       .  S
C599        C813   1.479       .  S
C600        C780   1.478       .  S
C601        C770   1.477       .  S
H602        O603   0.966       .  S
O603       Zr898   2.339       .  S
O603       Zr900   2.345       .  S
H604        O605   0.965       .  S
O605      Zr1699   2.343   1_455  S
O605      Zr2003   2.336   1_455  S
O606        C629   1.289       .  A
O606       Zr622   2.424       .  S
O607        C630   1.292       .  A
O607       Zr623   2.437       .  S
O608        C631   1.293       .  A
O608       Zr624   2.437   1_565  S
O609        C632   1.290       .  A
O609       Zr625   2.430       .  S
O610        C633   1.290       .  A
O611        C634   1.292       .  A
O612        C635   1.293       .  A
O612       Zr626   2.443       .  S
O613        C636   1.293       .  A
O613      Zr1730   2.440   1_455  S
O614        C635   1.293   1_545  A
O614       Zr624   2.442       .  S
O615        C636   1.293       .  A
O615       Zr625   2.441       .  S
O616        C631   1.292       .  A
O616       Zr622   2.433       .  S
O617        C634   1.292       .  A
O617       Zr623   2.438       .  S
O618        C633   1.293       .  A
O618      Zr1727   2.446   1_455  S
O619        C632   1.289       .  A
O619      Zr1726   2.425   1_455  S
O620        C629   1.294       .  A
O620       Zr626   2.447       .  S
O621        C630   1.294       .  A
Zr622       O864   2.439       .  S
Zr622      O1723   2.425       .  S
Zr622      O1976   2.338       .  S
Zr622       O879   2.335       .  S
Zr622       O628   2.337       .  S
Zr622      O1744   2.338       .  S
Zr623       O863   2.420       .  S
Zr623      O1722   2.446       .  S
Zr623       O873   2.342       .  S
Zr623      O1985   2.338       .  S
Zr623      O1731   2.332       .  S
Zr623       O638   2.344       .  S
Zr624       O868   2.438       .  S
Zr624       O879   2.341   1_545  S
Zr624       O628   2.334   1_545  S
Zr625       O872   2.341       .  S
Zr625       O640   2.342       .  S
Zr626      O1717   2.440       .  S
Zr626      O1179   2.349   1_565  S
Zr626       O628   2.335       .  S
Zr626      O1744   2.335       .  S
O627      Zr1727   2.332   1_455  S
O627      Zr1178   2.345   1_455  S
C629        C803   1.470       .  S
C630        C793   1.479       .  S
C631        C710   1.482       .  S
C632        C730   1.456       .  S
C633        C740   1.470       .  S
C634        C720   1.473       .  S
C635        C750   1.481       .  S
C636        C760   1.476       .  S
H637        O638   0.965       .  S
H639        O640   0.965       .  S
O640      Zr1726   2.338   1_455  S
O640      Zr1730   2.335   1_455  S
N641        C646   1.354       .  A
N641        C645   1.351       .  A
N641        H673   1.042       .  S
N642        C649   1.351       .  A
N642        C650   1.352       .  A
N643        C648   1.349       .  A
N643        C647   1.352       .  A
N643        H674   1.042       .  S
N644        C651   1.350       .  A
N644        C652   1.349       .  A
C645        C653   1.388       .  A
C645        C661   1.415       .  A
C646        C662   1.415       .  A
C646        C654   1.386       .  A
C647        C655   1.388       .  A
C647        C664   1.415       .  A
C648        C663   1.411       .  A
C648        C656   1.387       .  A
C649        C661   1.414       .  A
C649        C657   1.386       .  A
C650        C664   1.414       .  A
C650        C658   1.386       .  A
C651        C659   1.386       .  A
C651        C662   1.410       .  A
C652        C660   1.386       .  A
C652        C663   1.409       .  A
C653        C654   1.377       .  A
C653        H665   1.082       .  S
C654        H666   1.082       .  S
C655        C656   1.379       .  A
C655        H667   1.082       .  S
C656        H668   1.083       .  S
C657        C658   1.375       .  A
C657        H669   1.082       .  S
C658        H670   1.082       .  S
C659        C660   1.373       .  A
C659        H671   1.082       .  S
C660        H672   1.082       .  S
C661        C783   1.492       .  S
C662        C773   1.493       .  S
C663        C763   1.480       .  S
C664        C753   1.495       .  S
N675        C680   1.354       .  A
N675        C679   1.358       .  A
N675        H707   1.041       .  S
N676        C683   1.352       .  A
N676        C684   1.352       .  A
N677        C682   1.353       .  A
N677        C681   1.351       .  A
N677        H708   1.041       .  S
N678        C685   1.349       .  A
N678        C686   1.352       .  A
C679        C687   1.387       .  A
C679        C695   1.420       .  A
C680        C696   1.412       .  A
C680        C688   1.384       .  A
C681        C689   1.388       .  A
C681        C698   1.412       .  A
C682        C697   1.412       .  A
C682        C690   1.386       .  A
C683        C695   1.417       .  A
C683        C691   1.387       .  A
C684        C698   1.409       .  A
C684        C692   1.382       .  A
C685        C693   1.387       .  A
C685        C696   1.410       .  A
C686        C694   1.385       .  A
C686        C697   1.412       .  A
C687        C688   1.368       .  A
C687        H699   1.082       .  S
C688        H700   1.083       .  S
C689        C690   1.374       .  A
C689        H701   1.082       .  S
C690        H702   1.082       .  S
C691        C692   1.370       .  A
C691        H703   1.082       .  S
C692        H704   1.082       .  S
C693        C694   1.367       .  A
C693        H705   1.081       .  S
C694        H706   1.081       .  S
C695        C713   1.530       .  S
C696        C733   1.478       .  S
C697        C743   1.488       .  S
C698        C723   1.488       .  S
C709        C710   1.401       .  A
C709        C714   1.396       .  A
C709        H715   1.083       .  S
C710        C711   1.401       .  A
C711        C712   1.398       .  A
C711        H716   1.083       .  S
C712        C713   1.417       .  A
C712        H717   1.077       .  S
C713        C714   1.415       .  A
C714        H718   1.077       .  S
C719        C720   1.404       .  A
C719        C724   1.396       .  A
C719        H725   1.083       .  S
C720        C721   1.404       .  A
C721        C722   1.397       .  A
C721        H726   1.083       .  S
C722        C723   1.405       .  A
C722        H727   1.083       .  S
C723        C724   1.404       .  A
C724        H728   1.083       .  S
C729        C730   1.403       .  A
C729        C734   1.396       .  A
C729        H735   1.084       .  S
C730        C731   1.399       .  A
C731        C732   1.391       .  A
C731        H736   1.084       .  S
C732        C733   1.401       .  A
C732        H737   1.083       .  S
C733        C734   1.404       .  A
C734        H738   1.083       .  S
C739        C740   1.403       .  A
C739        C744   1.398       .  A
C739        H745   1.083       .  S
C740        C741   1.403       .  A
C741        C742   1.398       .  A
C741        H746   1.083       .  S
C742        C743   1.405       .  A
C742        H747   1.083       .  S
C743        C744   1.404       .  A
C744        H748   1.083       .  S
C749        C750   1.405   1_545  A
C749        H755   1.083       .  S
C750        C751   1.406       .  A
C751        H756   1.083       .  S
C752        C753   1.406       .  A
C752        H757   1.083       .  S
C753        C754   1.406       .  A
C754        H758   1.083       .  S
C759        C764   1.395       .  A
C759        H765   1.083       .  S
C760        C761   1.405       .  A
C761        C762   1.398       .  A
C761        H766   1.083       .  S
C762        H767   1.083       .  S
C763        C764   1.403       .  A
C764        H768   1.083       .  S
C769        C770   1.404       .  A
C769        C774   1.397       .  A
C769        H775   1.083       .  S
C770        C771   1.405       .  A
C771        C772   1.398       .  A
C772        C773   1.407       .  A
C772        H777   1.083       .  S
C773        C774   1.405       .  A
C774        H778   1.083       .  S
C779        C780   1.405       .  A
C779        C784   1.399       .  A
C779        H785   1.083       .  S
C780        C781   1.405       .  A
C781        C782   1.397       .  A
C782        C783   1.405       .  A
C782        H787   1.083       .  S
C783        C784   1.407       .  A
C784        H788   1.083       .  S
C789        C790   1.406       .  A
C789        C794   1.398       .  A
C789        H795   1.083       .  S
C790       C1895   1.407       .  A
C790       C1679   1.496       .  S
C791       C1894   1.407       .  A
C791        C792   1.399       .  A
C791        H796   1.083       .  S
C792       C1897   1.406       .  A
C792        H797   1.083       .  S
C793       C1896   1.406       .  A
C793        C794   1.404       .  A
C794        H798   1.083       .  S
C799        C800   1.405       .  A
C799        C804   1.397       .  A
C799        H805   1.083       .  S
C800       C1905   1.404       .  A
C800       C1680   1.487       .  S
C801       C1904   1.404   1_455  A
C801        C802   1.397       .  A
C801        H806   1.083       .  S
C802       C1907   1.404   1_455  A
C802        H807   1.083       .  S
C803       C1906   1.404       .  A
C803        C804   1.403       .  A
C804        H808   1.083       .  S
C809       C1914   1.407       .  A
C809        C814   1.401       .  A
C809        H815   1.083       .  S
C810       C1913   1.407       .  A
C810        C811   1.405       .  A
C810       C1677   1.495       .  S
C811        C812   1.398       .  A
C811        H816   1.083       .  S
C812        C813   1.405       .  A
C812        H817   1.083       .  S
C813       C1918   1.405       .  A
C814       C1917   1.405       .  A
C814        H818   1.083       .  S
C819        C820   1.405       .  A
C819        C824   1.396       .  A
C819        H825   1.083       .  S
C820       C1925   1.405       .  A
C820       C1678   1.490       .  S
C821       C1924   1.405       .  A
C821        C822   1.399       .  A
C821        H826   1.083       .  S
C822       C1927   1.405   1_455  A
C822        H827   1.083       .  S
C823       C1926   1.405       .  A
C823        C824   1.403       .  A
C824        H828   1.083       .  S
N829        C834   1.350   1_455  A
N829        C833   1.353   1_455  A
N829        H861   1.041       .  S
N830        C837   1.352       .  A
N830        C838   1.350       .  A
N831        C836   1.353   1_455  A
N831        C835   1.352   1_455  A
N831        H862   1.042       .  S
N832        C839   1.349   1_655  A
N832        C840   1.352   1_655  A
C833        C841   1.387       .  A
C833        C849   1.414   1_655  A
C834        C850   1.412       .  A
C834        C842   1.387       .  A
C835        C843   1.387       .  A
C835        C852   1.414       .  A
C836        C851   1.413       .  A
C836        C844   1.386       .  A
C837        C849   1.412       .  A
C837        C845   1.385       .  A
C838        C852   1.412   1_455  A
C838        C846   1.386       .  A
C839        C847   1.387       .  A
C839        C850   1.411   1_455  A
C840        C848   1.386       .  A
C840        C851   1.412   1_455  A
C841        C842   1.376       .  A
C841        H853   1.082       .  S
C842        H854   1.082       .  S
C843        C844   1.376       .  A
C843        H855   1.082       .  S
C844        H856   1.082       .  S
C845        C846   1.374       .  A
C845        H857   1.082       .  S
C846        H858   1.082       .  S
C847        C848   1.373       .  A
C847        H859   1.082       .  S
C848        H860   1.082       .  S
C849       C2190   1.493       .  S
C850       C2200   1.480       .  S
C851       C2170   1.493       .  S
C852       C2180   1.489       .  S
O863        C874   1.289       .  A
O864        C875   1.293       .  A
O865        C876   1.291       .  A
O865       Zr871   2.430       .  S
O866        C877   1.292       .  A
O866      Zr1975   2.439   1_455  S
O867        C877   1.292       .  A
O869        C875   1.291       .  A
O870        C874   1.292       .  A
O870       Zr871   2.440       .  S
Zr871      O1970   2.439       .  S
Zr871      O1424   2.336       .  S
Zr871       O873   2.339       .  S
Zr871      O1985   2.341       .  S
O872      Zr1423   2.342   1_465  S
O872      Zr1726   2.338   1_455  S
C874       C1099   1.464       .  S
C875       C1089   1.475       .  S
C876       C1056   1.470       .  S
C877       C1046   1.474       .  S
H878        O879   0.965       .  S
H880        O881   0.965       .  S
O881      Zr1975   2.341   1_455  S
O881      Zr1727   2.338   1_455  S
O882        C905   1.291       .  A
O882       Zr898   2.433   1_556  S
O883        C906   1.293       .  A
O883       Zr899   2.443   1_556  S
O884        C907   1.292       .  A
O884       Zr900   2.436       .  S
O885        C908   1.291       .  A
O885       Zr901   2.432       .  S
O886        C909   1.291   1_556  A
O887        C910   1.291   1_556  A
O888        C911   1.291       .  A
O888       Zr902   2.430       .  S
O889        C912   1.291       .  A
O889      Zr2006   2.431   1_455  S
O890        C911   1.292   1_545  A
O890       Zr900   2.438   1_546  S
O891        C912   1.291   1_545  A
O891       Zr901   2.432   1_545  S
O892        C907   1.294       .  A
O892       Zr898   2.442       .  S
O893        C910   1.291       .  A
O893       Zr899   2.428       .  S
O894        C909   1.292       .  A
O894      Zr2003   2.441   1_455  S
O895        C908   1.291       .  A
O895      Zr2002   2.432   1_456  S
O896        C905   1.293       .  A
O896       Zr902   2.444       .  S
O897        C906   1.293       .  A
Zr898      O1999   2.432   1_554  S
Zr898      O1700   2.341       .  S
Zr898       O904   2.344   1_554  S
Zr898      O2020   2.342   1_554  S
Zr899      O1998   2.441       .  S
Zr899      O1709   2.336       .  S
Zr899      O2007   2.335   1_554  S
Zr899       O914   2.345   1_554  S
Zr900       O904   2.338   1_554  S
Zr901       O916   2.342       .  S
Zr902      O1993   2.431       .  S
Zr902      O1455   2.349   1_565  S
Zr902       O904   2.338       .  S
Zr902      O2020   2.334       .  S
O903      Zr2003   2.335   1_456  S
O903      Zr1454   2.344   1_455  S
C905       C1079   1.475       .  S
C906       C1069   1.478       .  S
C907        C986   1.484       .  S
C908       C1006   1.462       .  S
C909       C1016   1.467       .  S
C910        C996   1.465   1_554  S
C911       C1026   1.471   1_565  S
C912       C1036   1.467   1_565  S
H913        O914   0.965       .  S
H915        O916   0.966       .  S
O916      Zr2002   2.342   1_456  S
O916      Zr2006   2.334   1_455  S
N917        C922   1.353       .  A
N917        C921   1.351       .  A
N917        H949   1.041       .  S
N918        C925   1.350       .  A
N918        C926   1.350       .  A
N919        C924   1.351       .  A
N919        C923   1.352       .  A
N919        H950   1.041       .  S
N920        C927   1.350       .  A
N920        C928   1.350       .  A
C921        C929   1.387       .  A
C921        C937   1.413       .  A
C922        C938   1.414       .  A
C922        C930   1.387       .  A
C923        C931   1.387       .  A
C923        C940   1.413       .  A
C924        C939   1.413       .  A
C924        C932   1.387       .  A
C925        C937   1.411       .  A
C925        C933   1.386       .  A
C926        C940   1.411       .  A
C926        C934   1.386       .  A
C927        C935   1.386       .  A
C927        C938   1.411       .  A
C928        C936   1.386       .  A
C928        C939   1.411       .  A
C929        C930   1.377       .  A
C929        H941   1.082       .  S
C930        H942   1.082       .  S
C931        C932   1.377       .  A
C931        H943   1.082       .  S
C932        H944   1.082       .  S
C933        C934   1.373       .  A
C933        H945   1.082       .  S
C934        H946   1.082       .  S
C935        C936   1.373       .  A
C935        H947   1.082       .  S
C936        H948   1.082       .  S
C937       C1059   1.486       .  S
C938       C1049   1.490       .  S
C939       C1039   1.486       .  S
C940       C1029   1.487       .  S
N951        C956   1.353       .  A
N951        C955   1.358       .  A
N951        H983   1.041   1_556  S
N952        C959   1.351       .  A
N952        C960   1.350       .  A
N953        C958   1.354   1_556  A
N953        C957   1.351   1_556  A
N953        H984   1.040       .  S
N954        C961   1.349       .  A
N954        C962   1.352       .  A
C955        C963   1.387       .  A
C955        C971   1.421       .  A
C956        C972   1.412       .  A
C956        C964   1.385       .  A
C957        C965   1.387       .  A
C957        C974   1.411   1_554  A
C958        C973   1.412       .  A
C958        C966   1.386       .  A
C959        C971   1.416       .  A
C959        C967   1.387       .  A
C960        C974   1.407       .  A
C960        C968   1.383       .  A
C961        C969   1.387       .  A
C961        C972   1.412       .  A
C962        C970   1.385       .  A
C962        C973   1.412   1_556  A
C963        C964   1.370       .  A
C963        H975   1.082       .  S
C964        H976   1.083       .  S
C965        C966   1.374       .  A
C965        H977   1.082       .  S
C966        H978   1.082       .  S
C967        C968   1.370       .  A
C967        H979   1.082       .  S
C968        H980   1.083       .  S
C969        C970   1.368       .  A
C969        H981   1.081       .  S
C970        H982   1.081   1_556  S
C971        C989   1.530       .  S
C972       C1009   1.481       .  S
C973       C1019   1.486       .  S
C974        C999   1.480       .  S
C985        C986   1.401       .  A
C985        C990   1.396       .  A
C985        H991   1.083       .  S
C986        C987   1.402       .  A
C987        C988   1.398       .  A
C987        H992   1.083       .  S
C988        C989   1.417   1_554  A
C988        H993   1.078       .  S
C989        C990   1.416   1_556  A
C990        H994   1.076       .  S
C995        C996   1.403       .  A
C995       C1000   1.394       .  A
C995       H1001   1.083       .  S
C996        C997   1.402   1_556  A
C997        C998   1.394       .  A
C997       H1002   1.083       .  S
C998        C999   1.403   1_554  A
C998       H1003   1.083       .  S
C999       C1000   1.403       .  A
C1000      H1004   1.083       .  S
C1005      C1006   1.403       .  A
C1005      C1010   1.396       .  A
C1005      H1011   1.084       .  S
C1006      C1007   1.400   1_556  A
C1007      C1008   1.393       .  A
C1007      H1012   1.083       .  S
C1008      C1009   1.403   1_554  A
C1008      H1013   1.083       .  S
C1009      C1010   1.404       .  A
C1010      H1014   1.083       .  S
C1015      C1016   1.402   1_556  A
C1015      C1020   1.398       .  A
C1015      H1021   1.084       .  S
C1016      C1017   1.403       .  A
C1017      C1018   1.398       .  A
C1017      H1022   1.083       .  S
C1018      C1019   1.404       .  A
C1018      H1023   1.083       .  S
C1019      C1020   1.404   1_554  A
C1020      H1024   1.083       .  S
C1025      C1026   1.404       .  A
C1025      H1031   1.083       .  S
C1026      C1027   1.403   1_545  A
C1027      H1032   1.083       .  S
C1028      C1029   1.406       .  A
C1028      H1033   1.083       .  S
C1029      C1030   1.404       .  A
C1030      H1034   1.083       .  S
C1035      C1040   1.396       .  A
C1035      H1041   1.083       .  S
C1036      C1037   1.403   1_545  A
C1037      C1038   1.396       .  A
C1037      H1042   1.083       .  S
C1038      H1043   1.083       .  S
C1039      C1040   1.404       .  A
C1040      H1044   1.083       .  S
C1045      C1046   1.404       .  A
C1045      C1050   1.397       .  A
C1045      H1051   1.083       .  S
C1046      C1047   1.404       .  A
C1047      C1048   1.398       .  A
C1048      C1049   1.406       .  A
C1048      H1053   1.083       .  S
C1049      C1050   1.404       .  A
C1050      H1054   1.083       .  S
C1055      C1056   1.403       .  A
C1055      C1060   1.396       .  A
C1055      H1061   1.083       .  S
C1056      C1057   1.404       .  A
C1057      C1058   1.396       .  A
C1058      C1059   1.404       .  A
C1058      H1063   1.083       .  S
C1059      C1060   1.404       .  A
C1060      H1064   1.083       .  S
C1065      C1066   1.406       .  A
C1065      C1070   1.399       .  A
C1065      H1071   1.083       .  S
C1066      C2171   1.406       .  A
C1066      C1955   1.493       .  S
C1067      C2170   1.406   1_455  A
C1067      C1068   1.399       .  A
C1067      H1072   1.083       .  S
C1068      C2173   1.405   1_455  A
C1068      H1073   1.083       .  S
C1069      C2172   1.405       .  A
C1069      C1070   1.405       .  A
C1070      H1074   1.083       .  S
C1075      C1076   1.405       .  A
C1075      C1080   1.397       .  A
C1075      H1081   1.083       .  S
C1076      C2181   1.405       .  A
C1076      C1956   1.489       .  S
C1077      C2180   1.405   1_455  A
C1077      C1078   1.397       .  A
C1077      H1082   1.083       .  S
C1078      C2183   1.405   1_455  A
C1078      H1083   1.083       .  S
C1079      C2182   1.405       .  A
C1079      C1080   1.404       .  A
C1080      H1084   1.083       .  S
C1085      C2190   1.406       .  A
C1085      C1090   1.397       .  A
C1085      H1091   1.083       .  S
C1086      C2189   1.406       .  A
C1086      C1087   1.406       .  A
C1086      C1953   1.493       .  S
C1087      C1088   1.397       .  A
C1087      H1092   1.083       .  S
C1088      C1089   1.404       .  A
C1088      H1093   1.083       .  S
C1089      C2194   1.404       .  A
C1090      C2193   1.404       .  A
C1090      H1094   1.083       .  S
C1095      C1096   1.404       .  A
C1095      C1100   1.395       .  A
C1095      H1101   1.083       .  S
C1096      C2201   1.402       .  A
C1096      C1954   1.480       .  S
C1097      C2200   1.402   1_455  A
C1097      C1098   1.393       .  A
C1097      H1102   1.083       .  S
C1098      C2203   1.403   1_455  A
C1098      H1103   1.083       .  S
C1099      C2202   1.403       .  A
C1099      C1100   1.402       .  A
C1100      H1104   1.083       .  S
N1105      C1110   1.354       .  A
N1105      C1109   1.353       .  A
N1105      H1137   1.041       .  S
N1106      C1113   1.352       .  A
N1106      C1114   1.352       .  A
N1107      C1112   1.353       .  A
N1107      C1111   1.355       .  A
N1107      H1138   1.042       .  S
N1108      C1115   1.351       .  A
N1108      C1116   1.350       .  A
C1109      C1117   1.387       .  A
C1109      C1125   1.415       .  A
C1110      C1126   1.416       .  A
C1110      C1118   1.387       .  A
C1111      C1119   1.386       .  A
C1111      C1128   1.416       .  A
C1112      C1127   1.415       .  A
C1112      C1120   1.387       .  A
C1113      C1125   1.414       .  A
C1113      C1121   1.386       .  A
C1114      C1128   1.414       .  A
C1114      C1122   1.386       .  A
C1115      C1123   1.387       .  A
C1115      C1126   1.413       .  A
C1116      C1124   1.387       .  A
C1116      C1127   1.413       .  A
C1117      C1118   1.377       .  A
C1117      H1129   1.082       .  S
C1118      H1130   1.082       .  S
C1119      C1120   1.376       .  A
C1119      H1131   1.082       .  S
C1120      H1132   1.082       .  S
C1121      C1122   1.373       .  A
C1121      H1133   1.082       .  S
C1122      H1134   1.082       .  S
C1123      C1124   1.374       .  A
C1123      H1135   1.082       .  S
C1124      H1136   1.082       .  S
O1139      C1150   1.291       .  A
O1139     Zr1451   2.432   1_554  S
O1140      C1151   1.292       .  A
O1140     Zr1450   2.438   1_455  S
O1141      C1152   1.291   1_565  A
O1141     Zr1147   2.431       .  S
O1142      C1153   1.294   1_565  A
O1143      C1153   1.291       .  A
O1143     Zr2005   2.434   1_544  S
O1144      C1704   1.293       .  A
O1144     Zr1452   2.443       .  S
O1145      C1151   1.293   1_655  A
O1145     Zr1699   2.440       .  S
O1146      C1150   1.294       .  A
O1146     Zr1147   2.447   1_545  S
Zr1147     O1697   2.439       .  S
Zr1147     O1149   2.340   1_565  S
Zr1147     O1707   2.339       .  S
O1148     Zr1453   2.339       .  S
O1149     Zr1451   2.339   1_554  S
O1149     Zr2004   2.338   1_545  S
C1150      C1375   1.474       .  S
C1151      C1365   1.476       .  S
C1152      C1332   1.469       .  S
C1152      O1696   1.290       .  A
C1153      C1322   1.475       .  S
H1154      O1155   0.966       .  S
O1155     Zr1699   2.342       .  S
O1155     Zr1450   2.345       .  S
O1155     Zr1452   2.342       .  S
H1156      O1157   0.966       .  S
O1157     Zr2005   2.333   1_544  S
O1158      C1181   1.293       .  A
O1158     Zr1174   2.441       .  S
O1159      C1182   1.294       .  A
O1159     Zr1175   2.444       .  S
O1160      C1183   1.293       .  A
O1160     Zr1176   2.442       .  S
O1161      C1184   1.291       .  A
O1161     Zr1177   2.431       .  S
O1162      C1185   1.292       .  A
O1162     Zr1729   2.438   1_545  S
O1163      C1186   1.291       .  A
O1163     Zr1728   2.430       .  S
O1164      C1187   1.293       .  A
O1164     Zr1178   2.442       .  S
O1165      C1188   1.290       .  A
O1166      C1187   1.292       .  A
O1166     Zr1176   2.441       .  S
O1167      C1188   1.291       .  A
O1167     Zr1177   2.431       .  S
O1168      C1183   1.293       .  A
O1168     Zr1174   2.440       .  S
O1169      C1186   1.292       .  A
O1169     Zr1175   2.437   1_655  S
O1170      C1185   1.293       .  A
O1171      C1184   1.292       .  A
O1172      C1181   1.294       .  A
O1172     Zr1178   2.449       .  S
O1173      C1182   1.293       .  A
O1173     Zr1730   2.438   1_445  S
Zr1174     O1416   2.437   1_655  S
Zr1174     O1431   2.342       .  S
Zr1174     O1180   2.344       .  S
Zr1175     O1415   2.437   1_455  S
Zr1175     O1425   2.341   1_455  S
Zr1175     O1190   2.350   1_455  S
Zr1176     O1420   2.440       .  S
Zr1176     O1715   2.437       .  S
Zr1176     O1977   2.340       .  S
Zr1176     O1431   2.346       .  S
Zr1176     O1180   2.340       .  S
Zr1176     O1742   2.339       .  S
Zr1177     O1971   2.439       .  S
Zr1177     O1714   2.433       .  S
Zr1177     O1424   2.338       .  S
Zr1177     O1985   2.338       .  S
Zr1177     O1731   2.334       .  S
Zr1177     O1192   2.345       .  S
Zr1178     O1725   2.444       .  S
Zr1178     O1180   2.334       .  S
Zr1178     O1742   2.336       .  S
O1179     Zr1729   2.337   1_545  S
C1181      C1355   1.481       .  S
C1182      C1345   1.475       .  S
C1183      C1262   1.475       .  S
C1184      C1282   1.469       .  S
C1185      C1292   1.478       .  S
C1186      C1272   1.468       .  S
C1187      C1302   1.480       .  S
C1188      C1312   1.465       .  S
H1189      O1190   0.965       .  S
O1190     Zr1728   2.342       .  S
O1190     Zr1730   2.343   1_545  S
H1191      O1192   0.965       .  S
N1193      C1198   1.352   1_545  A
N1193      C1197   1.350   1_545  A
N1193      H1225   1.042       .  S
N1194      C1201   1.349       .  A
N1194      C1202   1.351       .  A
N1195      C1200   1.352   1_545  A
N1195      C1199   1.354   1_545  A
N1195      H1226   1.042       .  S
N1196      C1203   1.351       .  A
N1196      C1204   1.350       .  A
C1197      C1205   1.388       .  A
C1197      C1213   1.413   1_565  A
C1198      C1214   1.411   1_565  A
C1198      C1206   1.386       .  A
C1199      C1207   1.387       .  A
C1199      C1216   1.415   1_565  A
C1200      C1215   1.414       .  A
C1200      C1208   1.387       .  A
C1201      C1213   1.413       .  A
C1201      C1209   1.387       .  A
C1202      C1216   1.412       .  A
C1202      C1210   1.386       .  A
C1203      C1211   1.385       .  A
C1203      C1214   1.411       .  A
C1204      C1212   1.387       .  A
C1204      C1215   1.412   1_545  A
C1205      C1206   1.377       .  A
C1205      H1217   1.082       .  S
C1206      H1218   1.082       .  S
C1207      C1208   1.377       .  A
C1207      H1219   1.082       .  S
C1208      H1220   1.082       .  S
C1209      C1210   1.375       .  A
C1209      H1221   1.082       .  S
C1210      H1222   1.082       .  S
C1211      C1212   1.375       .  A
C1211      H1223   1.082       .  S
C1212      H1224   1.082       .  S
C1213      C1335   1.487       .  S
C1214      C1325   1.490       .  S
C1215      C1315   1.490       .  S
C1216      C1305   1.495   1_545  S
N1227      C1232   1.351       .  A
N1227      C1231   1.354       .  A
N1227      H1259   1.041       .  S
N1228      C1235   1.351       .  A
N1228      C1236   1.349       .  A
N1229      C1234   1.354       .  A
N1229      C1233   1.351       .  A
N1229      H1260   1.041       .  S
N1230      C1237   1.350       .  A
N1230      C1238   1.352       .  A
C1231      C1239   1.386       .  A
C1231      C1247   1.414       .  A
C1232      C1248   1.414       .  A
C1232      C1240   1.388       .  A
C1233      C1241   1.387       .  A
C1233      C1250   1.413       .  A
C1234      C1249   1.415       .  A
C1234      C1242   1.387       .  A
C1235      C1247   1.411       .  A
C1235      C1243   1.386       .  A
C1236      C1250   1.411       .  A
C1236      C1244   1.387       .  A
C1237      C1245   1.387       .  A
C1237      C1248   1.413       .  A
C1238      C1246   1.386       .  A
C1238      C1249   1.414       .  A
C1239      C1240   1.375       .  A
C1239      H1251   1.082       .  S
C1240      H1252   1.082       .  S
C1241      C1242   1.377       .  A
C1241      H1253   1.082       .  S
C1242      H1254   1.082       .  S
C1243      C1244   1.372       .  A
C1243      H1255   1.082       .  S
C1244      H1256   1.082       .  S
C1245      C1246   1.374       .  A
C1245      H1257   1.082       .  S
C1246      H1258   1.082       .  S
C1247      C1265   1.492       .  S
C1248      C1285   1.485       .  S
C1249      C1295   1.494       .  S
C1250      C1275   1.483       .  S
C1261      C1262   1.404       .  A
C1261      C1266   1.399       .  A
C1261      H1267   1.083       .  S
C1262      C1263   1.404       .  A
C1263      C1264   1.398       .  A
C1263      H1268   1.083       .  S
C1264      C1265   1.406       .  A
C1264      H1269   1.083       .  S
C1265      C1266   1.405       .  A
C1266      H1270   1.083       .  S
C1271      C1272   1.403       .  A
C1271      C1276   1.395       .  A
C1271      H1277   1.083       .  S
C1272      C1273   1.403       .  A
C1273      C1274   1.396       .  A
C1273      H1278   1.083       .  S
C1274      C1275   1.404       .  A
C1274      H1279   1.083       .  S
C1275      C1276   1.403       .  A
C1276      H1280   1.083       .  S
C1281      C1282   1.403       .  A
C1281      C1286   1.396       .  A
C1281      H1287   1.083       .  S
C1282      C1283   1.403       .  A
C1283      C1284   1.396       .  A
C1283      H1288   1.083       .  S
C1284      C1285   1.404       .  A
C1284      H1289   1.083       .  S
C1285      C1286   1.405       .  A
C1286      H1290   1.083       .  S
C1291      C1292   1.404       .  A
C1291      C1296   1.399       .  A
C1291      H1297   1.083       .  S
C1292      C1293   1.405       .  A
C1293      C1294   1.400       .  A
C1293      H1298   1.083       .  S
C1294      C1295   1.406       .  A
C1294      H1299   1.083       .  S
C1295      C1296   1.406       .  A
C1296      H1300   1.083       .  S
C1301      C1302   1.406       .  A
C1301      C1858   1.400       .  A
C1301      H1307   1.083       .  S
C1302      C1303   1.404       .  A
C1303      C1856   1.398       .  A
C1303      H1308   1.083       .  S
C1304      C1855   1.401       .  A
C1304      C1305   1.407       .  A
C1304      H1309   1.083       .  S
C1305      C1306   1.405   1_565  A
C1306      C1853   1.398       .  A
C1306      H1310   1.083       .  S
C1311      C1864   1.404   1_545  A
C1311      C1316   1.397       .  A
C1311      H1317   1.083       .  S
C1312      C1863   1.403       .  A
C1312      C1313   1.402       .  A
C1313      C1314   1.393       .  A
C1313      H1318   1.083       .  S
C1314      C1867   1.403       .  A
C1314      H1319   1.083       .  S
C1315      C1866   1.405       .  A
C1315      C1316   1.405   1_565  A
C1316      H1320   1.083       .  S
C1321      C1322   1.405       .  A
C1321      C1326   1.399       .  A
C1321      H1327   1.083       .  S
C1322      C1323   1.403   1_545  A
C1323      C1324   1.397       .  A
C1323      H1880   1.083       .  S
C1324      C1325   1.405   1_565  A
C1324      H1329   1.083       .  S
C1325      C1326   1.406       .  A
C1326      H1330   1.083       .  S
H1328      C1875   1.083       .  S
C1331      C1332   1.404       .  A
C1331      C1336   1.396       .  A
C1331      H1337   1.083       .  S
C1332      C1333   1.403   1_545  A
C1333      C1334   1.393       .  A
C1333      H1890   1.083       .  S
C1334      C1335   1.404   1_565  A
C1334      H1339   1.083       .  S
C1335      C1336   1.406       .  A
C1336      H1340   1.083       .  S
H1338      C1885   1.083       .  S
C1341      C1342   1.405   1_655  A
C1341      C1346   1.398       .  A
C1341      H1347   1.083       .  S
C1343      C1344   1.398       .  A
C1343      H1348   1.083       .  S
C1344      H1349   1.083       .  S
C1345      C1346   1.404   1_455  A
C1346      H1350   1.083       .  S
C1351      C1352   1.407       .  A
C1351      C1356   1.399       .  A
C1351      H1357   1.083       .  S
C1353      C1354   1.401       .  A
C1353      H1358   1.083       .  S
C1354      H1359   1.083       .  S
C1355      C1356   1.404       .  A
C1356      H1360   1.083       .  S
C1361      C1366   1.399       .  A
C1361      H1367   1.083       .  S
C1362      C1363   1.405   1_455  A
C1363      C1364   1.398       .  A
C1363      H1368   1.083       .  S
C1364      C1365   1.404   1_655  A
C1364      H1369   1.083       .  S
C1366      H1370   1.083       .  S
C1371      C1372   1.406       .  A
C1371      C1376   1.399       .  A
C1371      H1377   1.083       .  S
C1373      C1374   1.397       .  A
C1373      H1378   1.083       .  S
C1374      H1379   1.083       .  S
C1375      C1376   1.403       .  A
C1376      H1380   1.083       .  S
N1381      C1386   1.353       .  A
N1381      C1385   1.352       .  A
N1381      H1413   1.042       .  S
N1382      C1389   1.350       .  A
N1382      C1390   1.350       .  A
N1383      C1388   1.352       .  A
N1383      C1387   1.352       .  A
N1383      H1414   1.042       .  S
N1384      C1391   1.350       .  A
N1384      C1392   1.350       .  A
C1385      C1393   1.387       .  A
C1385      C1401   1.413       .  A
C1386      C1402   1.414       .  A
C1386      C1394   1.387       .  A
C1387      C1395   1.387       .  A
C1387      C1404   1.414       .  A
C1388      C1403   1.414       .  A
C1388      C1396   1.387       .  A
C1389      C1401   1.411       .  A
C1389      C1397   1.386       .  A
C1390      C1404   1.412       .  A
C1390      C1398   1.387       .  A
C1391      C1399   1.386       .  A
C1391      C1402   1.412       .  A
C1392      C1400   1.386       .  A
C1392      C1403   1.412       .  A
C1393      C1394   1.377       .  A
C1393      H1405   1.082       .  S
C1394      H1406   1.082       .  S
C1395      C1396   1.378       .  A
C1395      H1407   1.082       .  S
C1396      H1408   1.082       .  S
C1397      C1398   1.374       .  A
C1397      H1409   1.082       .  S
C1398      H1410   1.082       .  S
C1399      C1400   1.374       .  A
C1399      H1411   1.082       .  S
C1400      H1412   1.082       .  S
O1415      C1426   1.292       .  A
O1416      C1427   1.292       .  A
O1417      C1428   1.291   1_565  A
O1417     Zr1423   2.432   1_565  S
O1418      C1429   1.292       .  A
O1419      C1429   1.293       .  A
O1419     Zr1729   2.442       .  S
O1420      C1980   1.293       .  A
O1421      C1427   1.291   1_655  A
O1421     Zr1975   2.435       .  S
O1422      C1426   1.294       .  A
O1422     Zr1423   2.449       .  S
Zr1423     O1973   2.433   1_545  S
Zr1423     O1425   2.338       .  S
Zr1423     O1983   2.339   1_545  S
O1425     Zr1728   2.340       .  S
C1426      C1651   1.479       .  S
C1427      C1641   1.472       .  S
C1428      C1608   1.473       .  S
C1428      O1972   1.292       .  A
C1429      C1598   1.477       .  S
H1430      O1431   0.965       .  S
O1431     Zr1975   2.338       .  S
H1432      O1433   0.965       .  S
O1433     Zr1729   2.339   1_545  S
O1434      C1457   1.291       .  A
O1434     Zr1450   2.430   1_556  S
O1435      C1458   1.293   1_455  A
O1435     Zr1451   2.439   1_455  S
O1436      C1459   1.295       .  A
O1436     Zr1452   2.450       .  S
O1437      C1460   1.291       .  A
O1437     Zr1453   2.435       .  S
O1438      C1461   1.291       .  A
O1438     Zr2005   2.437   1_544  S
O1439      C1462   1.291       .  A
O1439     Zr2004   2.431   1_546  S
O1440      C1463   1.292       .  A
O1440     Zr1454   2.437       .  S
O1441      C1464   1.292       .  A
O1442      C1463   1.291       .  A
O1442     Zr1452   2.430   1_556  S
O1443      C1464   1.293       .  A
O1443     Zr1453   2.439   1_556  S
O1444      C1459   1.292       .  A
O1444     Zr1450   2.433       .  S
O1445      C1462   1.293   1_554  A
O1445     Zr1451   2.440   1_554  S
O1446      C1461   1.293       .  A
O1447      C1460   1.290       .  A
O1448      C1457   1.292       .  A
O1448     Zr1454   2.440       .  S
O1449      C1458   1.293       .  A
O1449     Zr2006   2.438   1_545  S
Zr1450     O1456   2.334   1_554  S
Zr1451     O1466   2.342       .  S
Zr1452     O1991   2.433   1_554  S
Zr1452     O1701   2.341       .  S
Zr1452     O1456   2.333   1_554  S
Zr1452     O2018   2.345   1_554  S
Zr1453     O1695   2.445       .  S
Zr1453     O1990   2.436   1_554  S
Zr1453     O1709   2.336       .  S
Zr1453     O2007   2.339   1_554  S
Zr1453     O1468   2.344   1_554  S
Zr1454     O2001   2.444       .  S
Zr1454     O1456   2.333       .  S
Zr1454     O2018   2.336       .  S
O1455     Zr2005   2.338   1_545  S
C1457      C1631   1.473       .  S
C1458      C1621   1.475       .  S
C1459      C1538   1.487   1_554  S
C1460      C1558   1.465   1_554  S
C1461      C1568   1.472       .  S
C1462      C1548   1.477   1_556  S
C1463      C1578   1.471       .  S
C1464      C1588   1.472       .  S
H1465      O1466   0.966       .  S
O1466     Zr2004   2.335   1_546  S
O1466     Zr2006   2.337   1_545  S
H1467      O1468   0.965       .  S
N1469      C1474   1.353   1_545  A
N1469      C1473   1.352   1_545  A
N1469      H1501   1.042       .  S
N1470      C1477   1.349       .  A
N1470      C1478   1.349       .  A
N1471      C1476   1.351   1_545  A
N1471      C1475   1.351   1_545  A
N1471      H1502   1.042       .  S
N1472      C1479   1.350       .  A
N1472      C1480   1.349       .  A
C1473      C1481   1.387       .  A
C1473      C1489   1.415   1_565  A
C1474      C1490   1.415       .  A
C1474      C1482   1.386       .  A
C1475      C1483   1.388       .  A
C1475      C1492   1.414   1_565  A
C1476      C1491   1.411   1_565  A
C1476      C1484   1.386       .  A
C1477      C1489   1.412       .  A
C1477      C1485   1.387       .  A
C1478      C1492   1.411       .  A
C1478      C1486   1.386       .  A
C1479      C1487   1.387       .  A
C1479      C1490   1.411   1_545  A
C1480      C1488   1.385       .  A
C1480      C1491   1.408       .  A
C1481      C1482   1.377       .  A
C1481      H1493   1.082       .  S
C1482      H1494   1.082       .  S
C1483      C1484   1.377       .  A
C1483      H1495   1.082       .  S
C1484      H1496   1.082       .  S
C1485      C1486   1.374       .  A
C1485      H1497   1.082       .  S
C1486      H1498   1.082       .  S
C1487      C1488   1.373       .  A
C1487      H1499   1.082       .  S
C1488      H1500   1.082       .  S
C1489      C1611   1.489       .  S
C1490      C1601   1.494       .  S
C1491      C1591   1.483       .  S
C1492      C1581   1.487       .  S
N1503      C1508   1.355       .  A
N1503      C1507   1.359       .  A
N1503      H1535   1.040   1_556  S
N1504      C1511   1.352   1_554  A
N1504      C1512   1.351   1_554  A
N1505      C1510   1.353       .  A
N1505      C1509   1.353       .  A
N1505      H1536   1.041   1_554  S
N1506      C1513   1.350       .  A
N1506      C1514   1.353       .  A
C1507      C1515   1.387       .  A
C1507      C1523   1.425       .  A
C1508      C1524   1.417       .  A
C1508      C1516   1.386       .  A
C1509      C1517   1.388       .  A
C1509      C1526   1.415       .  A
C1510      C1525   1.414       .  A
C1510      C1518   1.386       .  A
C1511      C1523   1.418       .  A
C1511      C1519   1.387       .  A
C1512      C1526   1.411   1_556  A
C1512      C1520   1.383       .  A
C1513      C1521   1.388       .  A
C1513      C1524   1.416   1_554  A
C1514      C1522   1.386       .  A
C1514      C1525   1.416       .  A
C1515      C1516   1.370       .  A
C1515      H1527   1.082       .  S
C1516      H1528   1.083       .  S
C1517      C1518   1.376       .  A
C1517      H1529   1.082       .  S
C1518      H1530   1.083       .  S
C1519      C1520   1.371       .  A
C1519      H1531   1.082       .  S
C1520      H1532   1.082       .  S
C1521      C1522   1.368       .  A
C1521      H1533   1.081       .  S
C1522      H1534   1.080       .  S
C1523      C1541   1.533       .  S
C1524      C1561   1.485       .  S
C1525      C1571   1.492       .  S
C1526      C1551   1.492       .  S
C1537      C1538   1.403       .  A
C1537      C1542   1.400       .  A
C1537      H1543   1.083       .  S
C1538      C1539   1.400   1_556  A
C1539      C1540   1.398       .  A
C1539      H1544   1.083       .  S
C1540      C1541   1.417   1_554  A
C1540      H1545   1.078       .  S
C1541      C1542   1.418       .  A
C1542      H1546   1.074       .  S
C1547      C1548   1.406   1_556  A
C1547      C1552   1.397       .  A
C1547      H1553   1.083       .  S
C1548      C1549   1.404       .  A
C1549      C1550   1.396       .  A
C1549      H1554   1.083       .  S
C1550      C1551   1.406       .  A
C1550      H1555   1.083       .  S
C1551      C1552   1.405   1_554  A
C1552      H1556   1.083       .  S
C1557      C1558   1.403       .  A
C1557      C1562   1.396       .  A
C1557      H1563   1.084       .  S
C1558      C1559   1.401   1_556  A
C1559      C1560   1.395       .  A
C1559      H1564   1.083       .  S
C1560      C1561   1.404   1_554  A
C1560      H1565   1.083       .  S
C1561      C1562   1.404       .  A
C1562      H1566   1.083       .  S
C1567      C1568   1.401   1_556  A
C1567      C1572   1.396       .  A
C1567      H1573   1.083       .  S
C1568      C1569   1.405       .  A
C1569      C1570   1.401       .  A
C1569      H1574   1.083       .  S
C1570      C1571   1.406       .  A
C1570      H1575   1.083       .  S
C1571      C1572   1.405   1_554  A
C1572      H1576   1.083       .  S
C1577      C1578   1.404       .  A
C1577      C2134   1.396       .  A
C1577      H1583   1.083       .  S
C1578      C1579   1.403       .  A
C1579      C2132   1.397       .  A
C1579      H1584   1.083       .  S
C1580      C2131   1.396       .  A
C1580      C1581   1.405   1_565  A
C1580      H1585   1.083       .  S
C1581      C1582   1.405       .  A
C1582      C2129   1.396       .  A
C1582      H1586   1.083       .  S
C1587      C2140   1.403       .  A
C1587      C1592   1.395       .  A
C1587      H1593   1.083       .  S
C1588      C2139   1.404       .  A
C1588      C1589   1.404       .  A
C1589      C1590   1.397       .  A
C1589      H1594   1.083       .  S
C1590      C2143   1.404       .  A
C1590      H1595   1.083       .  S
C1591      C2142   1.405   1_545  A
C1591      C1592   1.403       .  A
C1592      H1596   1.083       .  S
C1597      C1598   1.403   1_545  A
C1597      C1602   1.396       .  A
C1597      H1603   1.083       .  S
C1598      C1599   1.405       .  A
C1599      C1600   1.399       .  A
C1599      H2156   1.083       .  S
C1600      C1601   1.407       .  A
C1600      H1605   1.083       .  S
C1601      C1602   1.405   1_565  A
C1602      H1606   1.083       .  S
H1604      C2151   1.083       .  S
C1607      C1608   1.404       .  A
C1607      C1612   1.396       .  A
C1607      H1613   1.083       .  S
C1608      C1609   1.405   1_545  A
C1609      C1610   1.397       .  A
C1609      H2166   1.083       .  S
C1610      C1611   1.406   1_565  A
C1610      H1615   1.083       .  S
C1611      C1612   1.404       .  A
C1612      H1616   1.083       .  S
H1614      C2161   1.083       .  S
C1617      C1618   1.406       .  A
C1617      C1622   1.398       .  A
C1617      H1623   1.083       .  S
C1619      C1620   1.396       .  A
C1619      H1624   1.083       .  S
C1620      H1625   1.083       .  S
C1621      C1622   1.405       .  A
C1622      H1626   1.083       .  S
C1627      C1628   1.406       .  A
C1627      C1632   1.397       .  A
C1627      H1633   1.083       .  S
C1629      C1630   1.396       .  A
C1629      H1634   1.083       .  S
C1630      H1635   1.083       .  S
C1631      C1632   1.404       .  A
C1632      H1636   1.083       .  S
C1637      C1642   1.398       .  A
C1637      H1643   1.083       .  S
C1638      C1639   1.404   1_455  A
C1639      C1640   1.396       .  A
C1639      H1644   1.083       .  S
C1640      C1641   1.404   1_655  A
C1640      H1645   1.083       .  S
C1642      H1646   1.083       .  S
C1647      C1648   1.406       .  A
C1647      C1652   1.399       .  A
C1647      H1653   1.083       .  S
C1649      C1650   1.399       .  A
C1649      H1654   1.083       .  S
C1650      H1655   1.083       .  S
C1651      C1652   1.404       .  A
C1652      H1656   1.083       .  S
N1657      C1662   1.353       .  A
N1657      C1661   1.354       .  A
N1657      H1689   1.041       .  S
N1658      C1665   1.352       .  A
N1658      C1666   1.350       .  A
N1659      C1664   1.354       .  A
N1659      C1663   1.352       .  A
N1659      H1690   1.042       .  S
N1660      C1667   1.350       .  A
N1660      C1668   1.352       .  A
C1661      C1669   1.386       .  A
C1661      C1677   1.414       .  A
C1662      C1678   1.415       .  A
C1662      C1670   1.388       .  A
C1663      C1671   1.386       .  A
C1663      C1680   1.413       .  A
C1664      C1679   1.415       .  A
C1664      C1672   1.387       .  A
C1665      C1677   1.413       .  A
C1665      C1673   1.386       .  A
C1666      C1680   1.412       .  A
C1666      C1674   1.387       .  A
C1667      C1675   1.387       .  A
C1667      C1678   1.414       .  A
C1668      C1676   1.386       .  A
C1668      C1679   1.414       .  A
C1669      C1670   1.376       .  A
C1669      H1681   1.082       .  S
C1670      H1682   1.082       .  S
C1671      C1672   1.376       .  A
C1671      H1683   1.082       .  S
C1672      H1684   1.082       .  S
C1673      C1674   1.373       .  A
C1673      H1685   1.082       .  S
C1674      H1686   1.082       .  S
C1675      C1676   1.374       .  A
C1675      H1687   1.082       .  S
C1676      H1688   1.082       .  S
O1691      C1702   1.291       .  A
O1691     Zr2003   2.433       .  S
O1692      C1703   1.294       .  A
O1692     Zr2002   2.448   1_455  S
O1693      C1704   1.292       .  A
O1693     Zr1699   2.438       .  S
O1694      C1705   1.292       .  A
O1695      C1705   1.294       .  A
O1696     Zr2004   2.427   1_545  S
O1697      C1703   1.293   1_655  A
O1698      C1702   1.294       .  A
O1698     Zr1699   2.445       .  S
Zr1699     O1701   2.338       .  S
O1700     Zr2005   2.343   1_554  S
O1701     Zr2003   2.346       .  S
C1702      C1927   1.474       .  S
C1703      C1917   1.479       .  S
C1704      C1884   1.478       .  S
C1705      C1874   1.477       .  S
H1706      O1707   0.966       .  S
O1707     Zr2002   2.339       .  S
O1707     Zr2004   2.345       .  S
H1708      O1709   0.965       .  S
O1710      C1733   1.289       .  A
O1710     Zr1726   2.424       .  S
O1711      C1734   1.292       .  A
O1711     Zr1727   2.437   1_455  S
O1712      C1735   1.293       .  A
O1712     Zr1728   2.437   1_565  S
O1713      C1736   1.290       .  A
O1713     Zr1729   2.430       .  S
O1714      C1737   1.290       .  A
O1715      C1738   1.292       .  A
O1716      C1739   1.293       .  A
O1716     Zr1730   2.443       .  S
O1717      C1740   1.293       .  A
O1718      C1739   1.293   1_545  A
O1718     Zr1728   2.442       .  S
O1719      C1740   1.293       .  A
O1719     Zr1729   2.441       .  S
O1720      C1735   1.292       .  A
O1720     Zr1726   2.433       .  S
O1721      C1738   1.292       .  A
O1721     Zr1727   2.438       .  S
O1722      C1737   1.293       .  A
O1723      C1736   1.289       .  A
O1724      C1733   1.294       .  A
O1724     Zr1730   2.447       .  S
O1725      C1734   1.294   1_655  A
Zr1726     O1968   2.439   1_655  S
Zr1726     O1983   2.335       .  S
Zr1726     O1732   2.337       .  S
Zr1727     O1967   2.420       .  S
Zr1727     O1977   2.342       .  S
Zr1727     O1742   2.344       .  S
Zr1728     O1972   2.438       .  S
Zr1728     O1983   2.341   1_545  S
Zr1728     O1732   2.334   1_545  S
Zr1729     O1976   2.341       .  S
Zr1729     O1744   2.342       .  S
Zr1730     O1732   2.335       .  S
C1733      C1907   1.470       .  S
C1734      C1897   1.479       .  S
C1735      C1814   1.482       .  S
C1736      C1834   1.456       .  S
C1737      C1844   1.470       .  S
C1738      C1824   1.473       .  S
C1739      C1854   1.481       .  S
C1740      C1864   1.476       .  S
H1741      O1742   0.965       .  S
H1743      O1744   0.965       .  S
N1745      C1750   1.354       .  A
N1745      C1749   1.351       .  A
N1745      H1777   1.042       .  S
N1746      C1753   1.351       .  A
N1746      C1754   1.352       .  A
N1747      C1752   1.349       .  A
N1747      C1751   1.352       .  A
N1747      H1778   1.042       .  S
N1748      C1755   1.350       .  A
N1748      C1756   1.349       .  A
C1749      C1757   1.388       .  A
C1749      C1765   1.415       .  A
C1750      C1766   1.415       .  A
C1750      C1758   1.386       .  A
C1751      C1759   1.388       .  A
C1751      C1768   1.415       .  A
C1752      C1767   1.411       .  A
C1752      C1760   1.387       .  A
C1753      C1765   1.414       .  A
C1753      C1761   1.386       .  A
C1754      C1768   1.414       .  A
C1754      C1762   1.386       .  A
C1755      C1763   1.386       .  A
C1755      C1766   1.410       .  A
C1756      C1764   1.386       .  A
C1756      C1767   1.409       .  A
C1757      C1758   1.377       .  A
C1757      H1769   1.082       .  S
C1758      H1770   1.082       .  S
C1759      C1760   1.379       .  A
C1759      H1771   1.082       .  S
C1760      H1772   1.083       .  S
C1761      C1762   1.375       .  A
C1761      H1773   1.082       .  S
C1762      H1774   1.082       .  S
C1763      C1764   1.373       .  A
C1763      H1775   1.082       .  S
C1764      H1776   1.082       .  S
C1765      C1887   1.492       .  S
C1766      C1877   1.493       .  S
C1767      C1867   1.480       .  S
C1768      C1857   1.495       .  S
N1779      C1784   1.354       .  A
N1779      C1783   1.358       .  A
N1779      H1811   1.041       .  S
N1780      C1787   1.352       .  A
N1780      C1788   1.352       .  A
N1781      C1786   1.353       .  A
N1781      C1785   1.351       .  A
N1781      H1812   1.041       .  S
N1782      C1789   1.349       .  A
N1782      C1790   1.352       .  A
C1783      C1791   1.387       .  A
C1783      C1799   1.420       .  A
C1784      C1800   1.412       .  A
C1784      C1792   1.384       .  A
C1785      C1793   1.388       .  A
C1785      C1802   1.412       .  A
C1786      C1801   1.412       .  A
C1786      C1794   1.386       .  A
C1787      C1799   1.417       .  A
C1787      C1795   1.387       .  A
C1788      C1802   1.409       .  A
C1788      C1796   1.382       .  A
C1789      C1797   1.387       .  A
C1789      C1800   1.410       .  A
C1790      C1798   1.385       .  A
C1790      C1801   1.412       .  A
C1791      C1792   1.368       .  A
C1791      H1803   1.082       .  S
C1792      H1804   1.083       .  S
C1793      C1794   1.374       .  A
C1793      H1805   1.082       .  S
C1794      H1806   1.082       .  S
C1795      C1796   1.370       .  A
C1795      H1807   1.082       .  S
C1796      H1808   1.082       .  S
C1797      C1798   1.367       .  A
C1797      H1809   1.081       .  S
C1798      H1810   1.081       .  S
C1799      C1817   1.530       .  S
C1800      C1837   1.478       .  S
C1801      C1847   1.488       .  S
C1802      C1827   1.488       .  S
C1813      C1814   1.401       .  A
C1813      C1818   1.396       .  A
C1813      H1819   1.083       .  S
C1814      C1815   1.401       .  A
C1815      C1816   1.398       .  A
C1815      H1820   1.083       .  S
C1816      C1817   1.417       .  A
C1816      H1821   1.077       .  S
C1817      C1818   1.415       .  A
C1818      H1822   1.077       .  S
C1823      C1824   1.404       .  A
C1823      C1828   1.396       .  A
C1823      H1829   1.083       .  S
C1824      C1825   1.404       .  A
C1825      C1826   1.397       .  A
C1825      H1830   1.083       .  S
C1826      C1827   1.405       .  A
C1826      H1831   1.083       .  S
C1827      C1828   1.404       .  A
C1828      H1832   1.083       .  S
C1833      C1834   1.403       .  A
C1833      C1838   1.396       .  A
C1833      H1839   1.084       .  S
C1834      C1835   1.399       .  A
C1835      C1836   1.391       .  A
C1835      H1840   1.084       .  S
C1836      C1837   1.401       .  A
C1836      H1841   1.083       .  S
C1837      C1838   1.404       .  A
C1838      H1842   1.083       .  S
C1843      C1844   1.403       .  A
C1843      C1848   1.398       .  A
C1843      H1849   1.083       .  S
C1844      C1845   1.403       .  A
C1845      C1846   1.398       .  A
C1845      H1850   1.083       .  S
C1846      C1847   1.405       .  A
C1846      H1851   1.083       .  S
C1847      C1848   1.404       .  A
C1848      H1852   1.083       .  S
C1853      C1854   1.405   1_545  A
C1853      H1859   1.083       .  S
C1854      C1855   1.406       .  A
C1855      H1860   1.083       .  S
C1856      C1857   1.406       .  A
C1856      H1861   1.083       .  S
C1857      C1858   1.406       .  A
C1858      H1862   1.083       .  S
C1863      C1868   1.395       .  A
C1863      H1869   1.083       .  S
C1864      C1865   1.405       .  A
C1865      C1866   1.398       .  A
C1865      H1870   1.083       .  S
C1866      H1871   1.083       .  S
C1867      C1868   1.403       .  A
C1868      H1872   1.083       .  S
C1873      C1874   1.404       .  A
C1873      C1878   1.397       .  A
C1873      H1879   1.083       .  S
C1874      C1875   1.405       .  A
C1875      C1876   1.398       .  A
C1876      C1877   1.407       .  A
C1876      H1881   1.083       .  S
C1877      C1878   1.405       .  A
C1878      H1882   1.083       .  S
C1883      C1884   1.405       .  A
C1883      C1888   1.399       .  A
C1883      H1889   1.083       .  S
C1884      C1885   1.405       .  A
C1885      C1886   1.397       .  A
C1886      C1887   1.405       .  A
C1886      H1891   1.083       .  S
C1887      C1888   1.407       .  A
C1888      H1892   1.083       .  S
C1893      C1894   1.406   1_655  A
C1893      C1898   1.398       .  A
C1893      H1899   1.083       .  S
C1895      C1896   1.399       .  A
C1895      H1900   1.083       .  S
C1896      H1901   1.083       .  S
C1897      C1898   1.404   1_455  A
C1898      H1902   1.083       .  S
C1903      C1904   1.405       .  A
C1903      C1908   1.397       .  A
C1903      H1909   1.083       .  S
C1905      C1906   1.397       .  A
C1905      H1910   1.083       .  S
C1906      H1911   1.083       .  S
C1907      C1908   1.403       .  A
C1908      H1912   1.083       .  S
C1913      C1918   1.401       .  A
C1913      H1919   1.083       .  S
C1914      C1915   1.405   1_455  A
C1915      C1916   1.398       .  A
C1915      H1920   1.083       .  S
C1916      C1917   1.405   1_655  A
C1916      H1921   1.083       .  S
C1918      H1922   1.083       .  S
C1923      C1924   1.405   1_655  A
C1923      C1928   1.396       .  A
C1923      H1929   1.083       .  S
C1925      C1926   1.399       .  A
C1925      H1930   1.083       .  S
C1926      H1931   1.083       .  S
C1927      C1928   1.403       .  A
C1928      H1932   1.083       .  S
N1933      C1938   1.350       .  A
N1933      C1937   1.353       .  A
N1933      H1965   1.041       .  S
N1934      C1941   1.352       .  A
N1934      C1942   1.350       .  A
N1935      C1940   1.353       .  A
N1935      C1939   1.352       .  A
N1935      H1966   1.042       .  S
N1936      C1943   1.349       .  A
N1936      C1944   1.352       .  A
C1937      C1945   1.387       .  A
C1937      C1953   1.414       .  A
C1938      C1954   1.412       .  A
C1938      C1946   1.387       .  A
C1939      C1947   1.387       .  A
C1939      C1956   1.414       .  A
C1940      C1955   1.413       .  A
C1940      C1948   1.386       .  A
C1941      C1953   1.412       .  A
C1941      C1949   1.385       .  A
C1942      C1956   1.412       .  A
C1942      C1950   1.386       .  A
C1943      C1951   1.387       .  A
C1943      C1954   1.411       .  A
C1944      C1952   1.386       .  A
C1944      C1955   1.412       .  A
C1945      C1946   1.376       .  A
C1945      H1957   1.082       .  S
C1946      H1958   1.082       .  S
C1947      C1948   1.376       .  A
C1947      H1959   1.082       .  S
C1948      H1960   1.082       .  S
C1949      C1950   1.374       .  A
C1949      H1961   1.082       .  S
C1950      H1962   1.082       .  S
C1951      C1952   1.373       .  A
C1951      H1963   1.082       .  S
C1952      H1964   1.082       .  S
O1967      C1978   1.289       .  A
O1968      C1979   1.293       .  A
O1969      C1980   1.291       .  A
O1969     Zr1975   2.430       .  S
O1970      C1981   1.292       .  A
O1971      C1981   1.292       .  A
O1973      C1979   1.291   1_655  A
O1974      C1978   1.292       .  A
O1974     Zr1975   2.440       .  S
Zr1975     O1977   2.339       .  S
C1978      C2203   1.464       .  S
C1979      C2193   1.475       .  S
C1980      C2160   1.470       .  S
C1981      C2150   1.474       .  S
H1982      O1983   0.965       .  S
H1984      O1985   0.965       .  S
O1986      C2009   1.291       .  A
O1986     Zr2002   2.433   1_556  S
O1987      C2010   1.293       .  A
O1987     Zr2003   2.443   1_556  S
O1988      C2011   1.292       .  A
O1988     Zr2004   2.436       .  S
O1989      C2012   1.291       .  A
O1989     Zr2005   2.432       .  S
O1990      C2013   1.291   1_556  A
O1991      C2014   1.291   1_556  A
O1992      C2015   1.291       .  A
O1992     Zr2006   2.430       .  S
O1993      C2016   1.291       .  A
O1994      C2015   1.292   1_545  A
O1994     Zr2004   2.438   1_546  S
O1995      C2016   1.291   1_545  A
O1995     Zr2005   2.432   1_545  S
O1996      C2011   1.294       .  A
O1996     Zr2002   2.442       .  S
O1997      C2014   1.291       .  A
O1997     Zr2003   2.428       .  S
O1998      C2013   1.292       .  A
O1999      C2012   1.291       .  A
O2000      C2009   1.293       .  A
O2000     Zr2006   2.444       .  S
O2001      C2010   1.293       .  A
Zr2002     O2008   2.344   1_554  S
Zr2003     O2018   2.345   1_554  S
Zr2004     O2008   2.338   1_554  S
Zr2005     O2020   2.342       .  S
Zr2006     O2008   2.338       .  S
C2009      C2183   1.475       .  S
C2010      C2173   1.478       .  S
C2011      C2090   1.484       .  S
C2012      C2110   1.462       .  S
C2013      C2120   1.467       .  S
C2014      C2100   1.465   1_554  S
C2015      C2130   1.471   1_565  S
C2016      C2140   1.467   1_565  S
H2017      O2018   0.965       .  S
H2019      O2020   0.966       .  S
N2021      C2026   1.353       .  A
N2021      C2025   1.351       .  A
N2021      H2053   1.041       .  S
N2022      C2029   1.350       .  A
N2022      C2030   1.350       .  A
N2023      C2028   1.351       .  A
N2023      C2027   1.352       .  A
N2023      H2054   1.041       .  S
N2024      C2031   1.350       .  A
N2024      C2032   1.350       .  A
C2025      C2033   1.387       .  A
C2025      C2041   1.413       .  A
C2026      C2042   1.414       .  A
C2026      C2034   1.387       .  A
C2027      C2035   1.387       .  A
C2027      C2044   1.413       .  A
C2028      C2043   1.413       .  A
C2028      C2036   1.387       .  A
C2029      C2041   1.411       .  A
C2029      C2037   1.386       .  A
C2030      C2044   1.411       .  A
C2030      C2038   1.386       .  A
C2031      C2039   1.386       .  A
C2031      C2042   1.411       .  A
C2032      C2040   1.386       .  A
C2032      C2043   1.411       .  A
C2033      C2034   1.377       .  A
C2033      H2045   1.082       .  S
C2034      H2046   1.082       .  S
C2035      C2036   1.377       .  A
C2035      H2047   1.082       .  S
C2036      H2048   1.082       .  S
C2037      C2038   1.373       .  A
C2037      H2049   1.082       .  S
C2038      H2050   1.082       .  S
C2039      C2040   1.373       .  A
C2039      H2051   1.082       .  S
C2040      H2052   1.082       .  S
C2041      C2163   1.486       .  S
C2042      C2153   1.490       .  S
C2043      C2143   1.486       .  S
C2044      C2133   1.487       .  S
N2055      C2060   1.353       .  A
N2055      C2059   1.358       .  A
N2055      H2087   1.041   1_556  S
N2056      C2063   1.351       .  A
N2056      C2064   1.350       .  A
N2057      C2062   1.354   1_556  A
N2057      C2061   1.351   1_556  A
N2057      H2088   1.040       .  S
N2058      C2065   1.349       .  A
N2058      C2066   1.352       .  A
C2059      C2067   1.387       .  A
C2059      C2075   1.421       .  A
C2060      C2076   1.412       .  A
C2060      C2068   1.385       .  A
C2061      C2069   1.387       .  A
C2061      C2078   1.411   1_554  A
C2062      C2077   1.412       .  A
C2062      C2070   1.386       .  A
C2063      C2075   1.416       .  A
C2063      C2071   1.387       .  A
C2064      C2078   1.407       .  A
C2064      C2072   1.383       .  A
C2065      C2073   1.387       .  A
C2065      C2076   1.412       .  A
C2066      C2074   1.385       .  A
C2066      C2077   1.412   1_556  A
C2067      C2068   1.370       .  A
C2067      H2079   1.082       .  S
C2068      H2080   1.083       .  S
C2069      C2070   1.374       .  A
C2069      H2081   1.082       .  S
C2070      H2082   1.082       .  S
C2071      C2072   1.370       .  A
C2071      H2083   1.082       .  S
C2072      H2084   1.083       .  S
C2073      C2074   1.368       .  A
C2073      H2085   1.081       .  S
C2074      H2086   1.081   1_556  S
C2075      C2093   1.530       .  S
C2076      C2113   1.481       .  S
C2077      C2123   1.486       .  S
C2078      C2103   1.480       .  S
C2089      C2090   1.401       .  A
C2089      C2094   1.396       .  A
C2089      H2095   1.083       .  S
C2090      C2091   1.402       .  A
C2091      C2092   1.398       .  A
C2091      H2096   1.083       .  S
C2092      C2093   1.417   1_554  A
C2092      H2097   1.078       .  S
C2093      C2094   1.416   1_556  A
C2094      H2098   1.076       .  S
C2099      C2100   1.403       .  A
C2099      C2104   1.394       .  A
C2099      H2105   1.083       .  S
C2100      C2101   1.402   1_556  A
C2101      C2102   1.394       .  A
C2101      H2106   1.083       .  S
C2102      C2103   1.403   1_554  A
C2102      H2107   1.083       .  S
C2103      C2104   1.403       .  A
C2104      H2108   1.083       .  S
C2109      C2110   1.403       .  A
C2109      C2114   1.396       .  A
C2109      H2115   1.084       .  S
C2110      C2111   1.400   1_556  A
C2111      C2112   1.393       .  A
C2111      H2116   1.083       .  S
C2112      C2113   1.403   1_554  A
C2112      H2117   1.083       .  S
C2113      C2114   1.404       .  A
C2114      H2118   1.083       .  S
C2119      C2120   1.402   1_556  A
C2119      C2124   1.398       .  A
C2119      H2125   1.084       .  S
C2120      C2121   1.403       .  A
C2121      C2122   1.398       .  A
C2121      H2126   1.083       .  S
C2122      C2123   1.404       .  A
C2122      H2127   1.083       .  S
C2123      C2124   1.404   1_554  A
C2124      H2128   1.083       .  S
C2129      C2130   1.404       .  A
C2129      H2135   1.083       .  S
C2130      C2131   1.403   1_545  A
C2131      H2136   1.083       .  S
C2132      C2133   1.406       .  A
C2132      H2137   1.083       .  S
C2133      C2134   1.404       .  A
C2134      H2138   1.083       .  S
C2139      C2144   1.396       .  A
C2139      H2145   1.083       .  S
C2140      C2141   1.403   1_545  A
C2141      C2142   1.396       .  A
C2141      H2146   1.083       .  S
C2142      H2147   1.083       .  S
C2143      C2144   1.404       .  A
C2144      H2148   1.083       .  S
C2149      C2150   1.404       .  A
C2149      C2154   1.397       .  A
C2149      H2155   1.083       .  S
C2150      C2151   1.404       .  A
C2151      C2152   1.398       .  A
C2152      C2153   1.406       .  A
C2152      H2157   1.083       .  S
C2153      C2154   1.404       .  A
C2154      H2158   1.083       .  S
C2159      C2160   1.403       .  A
C2159      C2164   1.396       .  A
C2159      H2165   1.083       .  S
C2160      C2161   1.404       .  A
C2161      C2162   1.396       .  A
C2162      C2163   1.404       .  A
C2162      H2167   1.083       .  S
C2163      C2164   1.404       .  A
C2164      H2168   1.083       .  S
C2169      C2170   1.406       .  A
C2169      C2174   1.399       .  A
C2169      H2175   1.083       .  S
C2171      C2172   1.399       .  A
C2171      H2176   1.083       .  S
C2172      H2177   1.083       .  S
C2173      C2174   1.405       .  A
C2174      H2178   1.083       .  S
C2179      C2180   1.405       .  A
C2179      C2184   1.397       .  A
C2179      H2185   1.083       .  S
C2181      C2182   1.397       .  A
C2181      H2186   1.083       .  S
C2182      H2187   1.083       .  S
C2183      C2184   1.404       .  A
C2184      H2188   1.083       .  S
C2189      C2194   1.397       .  A
C2189      H2195   1.083       .  S
C2190      C2191   1.406   1_455  A
C2191      C2192   1.397       .  A
C2191      H2196   1.083       .  S
C2192      C2193   1.404   1_655  A
C2192      H2197   1.083       .  S
C2194      H2198   1.083       .  S
C2199      C2200   1.404       .  A
C2199      C2204   1.395       .  A
C2199      H2205   1.083       .  S
C2201      C2202   1.393       .  A
C2201      H2206   1.083       .  S
C2202      H2207   1.083       .  S
C2203      C2204   1.402       .  A
C2204      H2208   1.083       .  S
