geometry optimzed in LAMMPS
_audit_creation_date              2020-11-30 
_audit_creation_method            'lammps2cif' 
_symmetry_space_group_name_H-M    'P1' 
_symmetry_Int_Tables_number       1 
_symmetry_cell_setting            triclinic 
loop_ 
_symmetry_equiv_pos_as_xyz 
  x,y,z 
_cell_length_a                    34.95600343108654 
_cell_length_b                    25.895464463449883 
_cell_length_c                    34.42051583244892 
_cell_angle_alpha                 89.54523140231647 
_cell_angle_beta                  89.98364420319884 
_cell_angle_gamma                 89.90868505331775 
loop_ 
_atom_site_label 
_atom_site_type_symbol 
_atom_site_fract_x 
_atom_site_fract_y 
_atom_site_fract_z 
_atom_site_charge 
C1          C  0.37384995  0.89572668  0.12525401     0.03550
C2          C  0.35234085  0.92249708  0.15225892    -0.12600
C3          C  0.35186469  0.97694924  0.15249313     0.01050
C4          C  0.37534174  0.00461806  0.12627261    -0.11120
C5          C  0.39792527  0.97698098  0.09950038     0.03550
C6          C  0.39578736  0.92288174  0.09863988    -0.10540
H7          H  0.33538335  0.90038562  0.17286607     0.09140
H8          H  0.37600201  0.04641446  0.12666694     0.06670
H9          H  0.41176300  0.90137996  0.07729624     0.06520
C10         C  0.37477697  0.67387114  0.12323320     0.03550
C11         C  0.35208226  0.64666827  0.14944932    -0.12600
C12         C  0.35165855  0.59255301  0.14964466     0.01050
C13         C  0.37563317  0.56522527  0.12375605    -0.11120
C14         C  0.39910429  0.59305970  0.09744436     0.03550
C15         C  0.39766785  0.64720847  0.09705694    -0.10540
H16         H  0.33405616  0.66797436  0.16940336     0.09140
H17         H  0.37595948  0.52340761  0.12403506     0.06670
H18         H  0.41498210  0.66896417  0.07668796     0.06520
C19         C  0.37458197  0.39452939  0.37616382     0.03550
C20         C  0.35376022  0.42116360  0.34821275    -0.12600
C21         C  0.35249207  0.47541760  0.34767607     0.01050
C22         C  0.37516337  0.50347370  0.37407863    -0.11120
C23         C  0.39756380  0.47619046  0.40153503     0.03550
C24         C  0.39569822  0.42194393  0.40311548    -0.10540
H25         H  0.33764837  0.39902710  0.32718905     0.09140
H26         H  0.37543656  0.54528372  0.37322219     0.06670
H27         H  0.41175597  0.40042886  0.42483767     0.06520
C28         C  0.37378575  0.17227149  0.37666044     0.03550
C29         C  0.39569113  0.14515191  0.40369574    -0.12600
C30         C  0.39718276  0.09109983  0.40343161     0.01050
C31         C  0.37422019  0.06351862  0.37687103    -0.11120
C32         C  0.35093356  0.09115364  0.35025670     0.03550
C33         C  0.35194250  0.14529719  0.34978193    -0.10540
H34         H  0.41282596  0.16660601  0.42428230     0.09140
H35         H  0.37450322  0.02170285  0.37687902     0.06670
H36         H  0.33477397  0.16682583  0.32895909     0.06520
C37         C  0.12262553  0.17148896  0.37289392     0.03550
C38         C  0.14702603  0.14491915  0.34817498    -0.12600
C39         C  0.14775653  0.09080916  0.34797581     0.01050
C40         C  0.12315177  0.06275803  0.37304285    -0.11120
C41         C  0.09815788  0.08995712  0.39793916     0.03550
C42         C  0.09834994  0.14416654  0.39756229    -0.10540
H43         H  0.16610290  0.16668372  0.32938918     0.09140
H44         H  0.12362219  0.02094243  0.37333548     0.06670
H45         H  0.07949574  0.16543693  0.41673485     0.06520
C46         C  0.12519774  0.39340101  0.37338326     0.03550
C47         C  0.14856403  0.42044278  0.34785102    -0.12600
C48         C  0.14948422  0.47484730  0.34769231     0.01050
C49         C  0.12565895  0.50233549  0.37343467    -0.11120
C50         C  0.10163925  0.47460184  0.39912920     0.03550
C51         C  0.10211838  0.42027436  0.39895340    -0.10540
H52         H  0.16624184  0.39852886  0.32799274     0.09140
H53         H  0.12580117  0.54415496  0.37347331     0.06670
H54         H  0.08423949  0.39827001  0.41880825     0.06520
Zn55       Zn  0.29607447  0.07668147  0.23836538     1.49720
Zn56       Zn  0.25043583  0.97569326  0.21956696     1.49360
Zn57       Zn  0.24981886  0.00943888  0.30613439     1.49110
Zn58       Zn  0.20430425  0.07471698  0.23689179     1.49480
O59         O  0.25029263  0.03509760  0.25132220    -1.83700
O60         O  0.32985017  0.04481631  0.19516550    -0.74330
O61         O  0.25090853  0.90947509  0.24797301    -0.74150
O62         O  0.29744109  0.03789786  0.33415235    -0.73670
O63         O  0.29505355  0.97446370  0.18700458    -0.74350
O64         O  0.32713699  0.08211848  0.28701867    -0.73950
O65         O  0.24981450  0.92961986  0.31040475    -0.74530
O66         O  0.17315705  0.08219741  0.28537011    -0.73920
O67         O  0.20647141  0.97277282  0.18558004    -0.74680
O68         O  0.20167986  0.03762281  0.33313928    -0.74070
O69         O  0.17087545  0.04218274  0.19478474    -0.74530
O70         O  0.21813069  0.14709512  0.21980076    -0.74440
O71         O  0.28107857  0.15109791  0.22500653    -0.74230
C72         C  0.32431266  0.00117920  0.17917508     0.77560
C73         C  0.25055245  0.89613460  0.28338910     0.78050
C74         C  0.32466355  0.06697064  0.32226014     0.77010
C75         C  0.17485119  0.06698101  0.32065704     0.77380
C76         C  0.17695843  0.99930564  0.17808748     0.78520
C77         C  0.24897940  0.17309024  0.21859608     0.77570
Zn78       Zn  0.25094982  0.47502797  0.27987235     1.49720
Zn79       Zn  0.29638528  0.57487254  0.26156798     1.49360
Zn80       Zn  0.25065657  0.50993650  0.19297958     1.49110
Zn81       Zn  0.20455506  0.57555927  0.26087288     1.49480
O82         O  0.25053314  0.53475013  0.24775932    -1.83700
O83         O  0.29556279  0.47232053  0.31306722    -0.74330
O84         O  0.32709426  0.58303901  0.21270053    -0.74150
O85         O  0.25000051  0.43015166  0.18882644    -0.73670
O86         O  0.33050473  0.54238503  0.30388869    -0.74350
O87         O  0.25008048  0.40935262  0.25138165    -0.73950
O88         O  0.29862445  0.53829283  0.16557311    -0.74530
O89         O  0.17313900  0.58203985  0.21248097    -0.73920
O90         O  0.28184541  0.64710448  0.27806720    -0.74680
O91         O  0.20300336  0.53934918  0.16513433    -0.74070
O92         O  0.21905476  0.64962671  0.27398963    -0.74530
O93         O  0.17129911  0.54284530  0.30441755    -0.74440
O94         O  0.20664741  0.47282496  0.31340759    -0.74230
C95         C  0.32489040  0.49901254  0.32054022     0.77560
C96         C  0.32526020  0.56797046  0.17755356     0.78050
C97         C  0.24944668  0.39633917  0.21602122     0.77010
C98         C  0.17564398  0.56792463  0.17718329     0.77380
C99         C  0.25073901  0.67251713  0.27990603     0.78520
C100        C  0.17719891  0.49931636  0.32099950     0.77570
C101        C  0.12561977  0.89614220  0.12375290     0.03550
C102        C  0.14803644  0.92191863  0.15054247    -0.12600
C103        C  0.14949344  0.97621307  0.15102837     0.01050
C104        C  0.12654186  0.00519188  0.12509949    -0.11120
C105        C  0.10320849  0.97890567  0.09843226     0.03550
C106        C  0.10384895  0.92450833  0.09751450    -0.10540
H107        H  0.16480473  0.89915019  0.17094766     0.09140
H108        H  0.12669167  0.04699608  0.12579712     0.06670
H109        H  0.08660186  0.90368920  0.07664564     0.06520
C110        C  0.12451037  0.67366028  0.12349031     0.03550
C111        C  0.14753298  0.64654672  0.14966432    -0.12600
C112        C  0.14898222  0.59241166  0.14938268     0.01050
C113        C  0.12559315  0.56489118  0.12322967    -0.11120
C114        C  0.10163862  0.59247803  0.09723835     0.03550
C115        C  0.10193764  0.64664259  0.09724594    -0.10540
H116        H  0.16519961  0.66797175  0.16981142     0.09140
H117        H  0.12600676  0.52307500  0.12311319     0.06670
H118        H  0.08395149  0.66808232  0.07709394     0.06520
Zn119      Zn  0.45459885  0.07622638  0.01435262     1.49720
Zn120      Zn  0.50129545  0.97911024  0.03405545     1.49360
Zn121      Zn  0.49833090  0.00770000  0.44614493     1.49110
Zn122      Zn  0.04640562  0.07708590  0.01108492     1.49480
O123        O  0.50024792  0.03618302  0.50009694    -1.83700
O124        O  0.42060592  0.04424787  0.05668021    -0.74330
O125        O  0.50551197  0.91332422  0.00719893    -0.74150
O126        O  0.45002670  0.03608258  0.41920377    -0.73670
O127        O  0.45578521  0.97438336  0.06625107    -0.74350
O128        O  0.42335951  0.08357420  0.46593060    -0.73990
O129        O  0.49649806  0.92716059  0.44487646    -0.74530
O130        O  0.07541313  0.08157416  0.46141533    -0.73920
O131        O  0.04441254  0.97924183  0.06817397    -0.74680
O132        O  0.04562409  0.03516194  0.41604879    -0.74070
O133        O  0.08172393  0.04544886  0.05358221    -0.74530
O134        O  0.03199212  0.15150980  0.02345615    -0.74440
O135        O  0.46926339  0.14830105  0.03043076    -0.74230
C136        C  0.42614908  0.00084530  0.07326603     0.77560
C137        C  0.50093034  0.89588072  0.47341705     0.78050
C138        C  0.42409144  0.06701241  0.43113859     0.77010
C139        C  0.07254472  0.06543619  0.42667136     0.77380
C140        C  0.07503941  0.00412043  0.07280465     0.78520
C141        C  0.50027208  0.17396455  0.03049693     0.77570
Zn142      Zn  0.50059555  0.51051564  0.05417103     1.49720
Zn143      Zn  0.45482647  0.57581439  0.48556317     1.49360
Zn144      Zn  0.04738339  0.57458788  0.48509119     1.49110
Zn145      Zn  0.50030980  0.47584129  0.46729670     1.49480
O146        O  0.50080543  0.53520571  0.49906471    -1.83700
O147        O  0.45267472  0.53922484  0.08180756    -0.74330
O148        O  0.47024317  0.64836653  0.47059400    -0.74150
O149        O  0.07826953  0.58189922  0.03390196    -0.73670
O150        O  0.42383396  0.58381720  0.03435508    -0.74350
O151        O  0.04813040  0.53935682  0.08162324    -0.73950
O152        O  0.03401271  0.64799322  0.46959823    -0.74530
O153        O  0.04430576  0.47303736  0.43322783    -0.73920
O154        O  0.42045258  0.54404095  0.44332695    -0.74680
O155        O  0.08070818  0.54154801  0.44265851    -0.74070
O156        O  0.45518275  0.47360726  0.43488505    -0.74530
O157        O  0.50027627  0.41020211  0.49644726    -0.74440
O158        O  0.50078684  0.43083421  0.05884235    -0.74230
C159        C  0.42583111  0.56885977  0.06968650     0.77560
C160        C  0.50215424  0.67162186  0.46675101     0.78050
C161        C  0.07547493  0.56791114  0.06939597     0.77010
C162        C  0.07416376  0.49884296  0.42582973     0.77380
C163        C  0.42575184  0.50036573  0.42742824     0.78520
C164        C  0.50030778  0.39716680  0.03195031     0.77570
C165        C  0.46508828  0.31440593  0.03000502    -0.01420
C166        C  0.49839416  0.34122397  0.04046070     0.08260
C167        C  0.03158154  0.31353956  0.05053812    -0.01540
C168        C  0.03175469  0.25895472  0.04972177    -0.01540
C169        C  0.49893071  0.23141082  0.03677788     0.08390
C170        C  0.46531714  0.26015867  0.02720954    -0.01730
Br171      Br  0.41988351  0.22812668  0.50596205    -0.00280
Br172      Br  0.41932385  0.35327036  0.51728083    -0.00350
Br173      Br  0.07770068  0.22354398  0.06643703    -0.00310
Br174      Br  0.07777691  0.35109980  0.06233290    -0.00300
C175        C  0.48948457  0.80722206  0.00226273    -0.01420
C176        C  0.49992483  0.83815607  0.46939901     0.08260
C177        C  0.01120611  0.81273926  0.43475508    -0.01540
C178        C  0.01155979  0.75802957  0.43315607    -0.01540
C179        C  0.50193187  0.72856269  0.46623287     0.08390
C180        C  0.49227752  0.75331818  0.00092922    -0.01730
Br181      Br  0.48545430  0.71269946  0.04803232    -0.00280
Br182      Br  0.46932553  0.83580202  0.04994622    -0.00350
Br183      Br  0.02572316  0.72294303  0.38612464    -0.00310
Br184      Br  0.02814675  0.85146669  0.38986993    -0.00300
C185        C  0.09261734  0.81223716  0.13684195    -0.01420
C186        C  0.12501572  0.83919143  0.12320982     0.08260
C187        C  0.15704976  0.81184909  0.10938534    -0.01540
C188        C  0.15679541  0.75762001  0.10934439    -0.01540
C189        C  0.12452054  0.73062605  0.12321298     0.08390
C190        C  0.09239526  0.75796439  0.13690114    -0.01730
Br191      Br  0.04862595  0.72102795  0.15694444    -0.00280
Br192      Br  0.04902097  0.84967317  0.15652054    -0.00350
Br193      Br  0.20026740  0.72028859  0.08927008    -0.00310
Br194      Br  0.20088752  0.84881425  0.08953840    -0.00300
C195        C  0.21459536  0.31346203  0.22272922    -0.01420
C196        C  0.24651736  0.34034859  0.20811951     0.08260
C197        C  0.27788570  0.31252797  0.19347122    -0.01540
C198        C  0.27792330  0.25788094  0.19458604    -0.01540
C199        C  0.24701134  0.23048081  0.21195635     0.08390
C200        C  0.21494472  0.25917522  0.22550847    -0.01730
Br201      Br  0.17233028  0.22658590  0.25196235    -0.00280
Br202      Br  0.17053319  0.35204097  0.24057854    -0.00350
Br203      Br  0.32070765  0.22167480  0.17189560    -0.00310
Br204      Br  0.32207142  0.34970130  0.17470633    -0.00300
C205        C  0.21780200  0.75788892  0.29695855    -0.01420
C206        C  0.25172103  0.73006574  0.28704869     0.08260
C207        C  0.28617440  0.75888512  0.28128226    -0.01540
C208        C  0.28604032  0.81320054  0.28426021    -0.01540
C209        C  0.25193646  0.84006765  0.29168609     0.08390
C210        C  0.21798039  0.81246286  0.29824308    -0.01730
Br211      Br  0.17094221  0.85040119  0.30587526    -0.00280
Br212      Br  0.17005033  0.72340365  0.30871909    -0.00350
Br213      Br  0.33253630  0.85228612  0.27572808    -0.00310
Br214      Br  0.33402929  0.72716878  0.26572899    -0.00300
C215        C  0.14523922  0.30862057  0.40158996    -0.01420
C216        C  0.12462126  0.33657224  0.37323559     0.08260
C217        C  0.10295102  0.31041065  0.34509730    -0.01540
C218        C  0.10211538  0.25620591  0.34513643    -0.01540
C219        C  0.12296105  0.22827016  0.37329068     0.08390
C220        C  0.14442177  0.25440547  0.40160320    -0.01730
Br221      Br  0.17295004  0.21578474  0.44007026    -0.00280
Br222      Br  0.17489833  0.34472392  0.44004634    -0.00350
Br223      Br  0.07190677  0.22003036  0.30717552    -0.00310
Br224      Br  0.07376971  0.34897009  0.30712968    -0.00300
C225        C  0.40785223  0.25611916  0.36723540    -0.01420
C226        C  0.37395622  0.22918624  0.37650134     0.08260
C227        C  0.34038201  0.25655556  0.38605567    -0.01540
C228        C  0.34063753  0.31075229  0.38610952    -0.01540
C229        C  0.37451631  0.33764287  0.37683614     0.08390
C230        C  0.40814704  0.31030657  0.36749411    -0.01730
Br231      Br  0.45433501  0.34701365  0.35357328    -0.00280
Br232      Br  0.45362533  0.21899776  0.35269549    -0.00350
Br233      Br  0.29477909  0.34807845  0.40003026    -0.00310
Br234      Br  0.29431013  0.21994829  0.40046779    -0.00300
C235        C  0.40091378  0.81143788  0.14725284    -0.01420
C236        C  0.37382026  0.83892289  0.12496846     0.08260
C237        C  0.34722073  0.81234551  0.10188140    -0.01540
C238        C  0.34762217  0.75813179  0.10117907    -0.01540
C239        C  0.37469523  0.73065602  0.12348136     0.08390
C240        C  0.40132247  0.75723956  0.14654246    -0.01730
Br241      Br  0.43807039  0.71921077  0.17728520    -0.00280
Br242      Br  0.43741088  0.84824050  0.17859994    -0.00350
Br243      Br  0.31124844  0.72128836  0.06973218    -0.00310
Br244      Br  0.31048280  0.85041506  0.07118246    -0.00300
C245        C  0.37384996  0.89572667  0.62525401     0.03550
C246        C  0.35234086  0.92249707  0.65225892    -0.12600
C247        C  0.35186469  0.97694923  0.65249313     0.01050
C248        C  0.37534174  0.00461805  0.62627260    -0.11120
C249        C  0.39792527  0.97698097  0.59950038     0.03550
C250        C  0.39578736  0.92288173  0.59863988    -0.10540
H251        H  0.33538335  0.90038561  0.67286607     0.09140
H252        H  0.37600201  0.04641445  0.62666694     0.06670
H253        H  0.41176301  0.90137995  0.57729624     0.06520
C254        C  0.37477696  0.67387113  0.62323320     0.03550
C255        C  0.35208225  0.64666826  0.64944931    -0.12600
C256        C  0.35165855  0.59255300  0.64964465     0.01050
C257        C  0.37563317  0.56522526  0.62375605    -0.11120
C258        C  0.39910429  0.59305969  0.59744436     0.03550
C259        C  0.39766785  0.64720846  0.59705693    -0.10540
H260        H  0.33405615  0.66797435  0.66940336     0.09140
H261        H  0.37595948  0.52340760  0.62403505     0.06670
H262        H  0.41498210  0.66896416  0.57668796     0.06520
C263        C  0.37458198  0.39452939  0.87616381     0.03550
C264        C  0.35376022  0.42116360  0.84821274    -0.12600
C265        C  0.35249207  0.47541760  0.84767607     0.01050
C266        C  0.37516337  0.50347370  0.87407862    -0.11120
C267        C  0.39756380  0.47619047  0.90153503     0.03550
C268        C  0.39569822  0.42194394  0.90311548    -0.10540
H269        H  0.33764838  0.39902711  0.82718904     0.09140
H270        H  0.37543656  0.54528373  0.87322219     0.06670
H271        H  0.41175596  0.40042886  0.92483767     0.06520
C272        C  0.37378575  0.17227149  0.87666043     0.03550
C273        C  0.39569113  0.14515191  0.90369573    -0.12600
C274        C  0.39718276  0.09109983  0.90343161     0.01050
C275        C  0.37422019  0.06351863  0.87687102    -0.11120
C276        C  0.35093356  0.09115364  0.85025670     0.03550
C277        C  0.35194250  0.14529719  0.84978193    -0.10540
H278        H  0.41282596  0.16660602  0.92428230     0.09140
H279        H  0.37450323  0.02170286  0.87687901     0.06670
H280        H  0.33477397  0.16682583  0.82895908     0.06520
C281        C  0.12262553  0.17148895  0.87289392     0.03550
C282        C  0.14702603  0.14491914  0.84817498    -0.12600
C283        C  0.14775653  0.09080915  0.84797581     0.01050
C284        C  0.12315177  0.06275802  0.87304285    -0.11120
C285        C  0.09815788  0.08995711  0.89793916     0.03550
C286        C  0.09834994  0.14416652  0.89756228    -0.10540
H287        H  0.16610291  0.16668371  0.82938918     0.09140
H288        H  0.12362220  0.02094242  0.87333548     0.06670
H289        H  0.07949574  0.16543692  0.91673485     0.06520
C290        C  0.12519774  0.39340100  0.87338327     0.03550
C291        C  0.14856403  0.42044276  0.84785103    -0.12600
C292        C  0.14948422  0.47484728  0.84769232     0.01050
C293        C  0.12565895  0.50233547  0.87343467    -0.11120
C294        C  0.10163925  0.47460183  0.89912921     0.03550
C295        C  0.10211837  0.42027435  0.89895340    -0.10540
H296        H  0.16624184  0.39852884  0.82799276     0.09140
H297        H  0.12580117  0.54415495  0.87347331     0.06670
H298        H  0.08423948  0.39827000  0.91880826     0.06520
Zn299      Zn  0.29607447  0.07668147  0.73836537     1.49720
Zn300      Zn  0.25043583  0.97569325  0.71956696     1.49360
Zn301      Zn  0.24981887  0.00943888  0.80613439     1.49110
Zn302      Zn  0.20430425  0.07471697  0.73689179     1.49480
O303        O  0.25029263  0.03509759  0.75132220    -1.83700
O304        O  0.32985017  0.04481630  0.69516550    -0.74330
O305        O  0.25090852  0.90947508  0.74797300    -0.74150
O306        O  0.29744109  0.03789786  0.83415235    -0.73670
O307        O  0.29505355  0.97446370  0.68700458    -0.74350
O308        O  0.32713699  0.08211849  0.78701867    -0.73950
O309        O  0.24981450  0.92961986  0.81040474    -0.74530
O310        O  0.17315705  0.08219740  0.78537011    -0.73920
O311        O  0.20647141  0.97277282  0.68558004    -0.74680
O312        O  0.20167987  0.03762280  0.83313927    -0.74070
O313        O  0.17087545  0.04218274  0.69478474    -0.74530
O314        O  0.21813069  0.14709511  0.71980076    -0.74440
O315        O  0.28107857  0.15109791  0.72500652    -0.74230
C316        C  0.32431266  0.00117919  0.67917507     0.77560
C317        C  0.25055245  0.89613460  0.78338910     0.78050
C318        C  0.32466355  0.06697064  0.82226014     0.77010
C319        C  0.17485119  0.06698100  0.82065705     0.77380
C320        C  0.17695843  0.99930564  0.67808748     0.78520
C321        C  0.24897940  0.17309023  0.71859608     0.77570
Zn322      Zn  0.25094982  0.47502795  0.77987235     1.49720
Zn323      Zn  0.29638528  0.57487254  0.76156797     1.49360
Zn324      Zn  0.25065656  0.50993649  0.69297958     1.49110
Zn325      Zn  0.20455506  0.57555925  0.76087288     1.49480
O326        O  0.25053314  0.53475012  0.74775932    -1.83700
O327        O  0.29556280  0.47232053  0.81306721    -0.74330
O328        O  0.32709426  0.58303900  0.71270052    -0.74150
O329        O  0.25000050  0.43015166  0.68882643    -0.73670
O330        O  0.33050472  0.54238504  0.80388869    -0.74350
O331        O  0.25008048  0.40935262  0.75138164    -0.73950
O332        O  0.29862443  0.53829283  0.66557310    -0.74530
O333        O  0.17313899  0.58203984  0.71248098    -0.73920
O334        O  0.28184540  0.64710448  0.77806717    -0.74680
O335        O  0.20300335  0.53934918  0.66513434    -0.74070
O336        O  0.21905475  0.64962668  0.77398965    -0.74530
O337        O  0.17129910  0.54284527  0.80441756    -0.74440
O338        O  0.20664741  0.47282494  0.81340760    -0.74230
C339        C  0.32489040  0.49901254  0.82054021     0.77560
C340        C  0.32526019  0.56797044  0.67755355     0.78050
C341        C  0.24944667  0.39633916  0.71602121     0.77010
C342        C  0.17564398  0.56792463  0.67718329     0.77380
C343        C  0.25073900  0.67251712  0.77990602     0.78520
C344        C  0.17719891  0.49931634  0.82099951     0.77570
C345        C  0.12561977  0.89614220  0.62375290     0.03550
C346        C  0.14803644  0.92191863  0.65054248    -0.12600
C347        C  0.14949344  0.97621307  0.65102837     0.01050
C348        C  0.12654186  0.00519188  0.62509949    -0.11120
C349        C  0.10320849  0.97890567  0.59843226     0.03550
C350        C  0.10384894  0.92450833  0.59751450    -0.10540
H351        H  0.16480472  0.89915019  0.67094767     0.09140
H352        H  0.12669167  0.04699608  0.62579711     0.06670
H353        H  0.08660186  0.90368920  0.57664564     0.06520
C354        C  0.12451036  0.67366028  0.62349032     0.03550
C355        C  0.14753297  0.64654672  0.64966434    -0.12600
C356        C  0.14898221  0.59241165  0.64938269     0.01050
C357        C  0.12559314  0.56489118  0.62322968    -0.11120
C358        C  0.10163861  0.59247803  0.59723836     0.03550
C359        C  0.10193763  0.64664259  0.59724595    -0.10540
H360        H  0.16519959  0.66797175  0.66981144     0.09140
H361        H  0.12600675  0.52307500  0.62311320     0.06670
H362        H  0.08395148  0.66808232  0.57709395     0.06520
Zn363      Zn  0.45459885  0.07622638  0.51435262     1.49720
Zn364      Zn  0.50129545  0.97911024  0.53405545     1.49360
Zn365      Zn  0.49833090  0.00770000  0.94614493     1.49110
Zn366      Zn  0.04640562  0.07708591  0.51108492     1.49480
O367        O  0.50024792  0.03618302  0.00009693    -1.83700
O368        O  0.42060592  0.04424786  0.55668021    -0.74330
O369        O  0.50551197  0.91332422  0.50719893    -0.74150
O370        O  0.45002669  0.03608259  0.91920377    -0.73670
O371        O  0.45578521  0.97438336  0.56625107    -0.74350
O372        O  0.42335951  0.08357421  0.96593059    -0.73990
O373        O  0.49649806  0.92716058  0.94487646    -0.74530
O374        O  0.07541313  0.08157415  0.96141532    -0.73920
O375        O  0.04441254  0.97924183  0.56817397    -0.74680
O376        O  0.04562409  0.03516193  0.91604879    -0.74070
O377        O  0.08172393  0.04544886  0.55358221    -0.74530
O378        O  0.03199211  0.15150981  0.52345615    -0.74440
O379        O  0.46926338  0.14830104  0.53043077    -0.74230
C380        C  0.42614909  0.00084529  0.57326604     0.77560
C381        C  0.50093034  0.89588072  0.97341705     0.78050
C382        C  0.42409144  0.06701242  0.93113859     0.77010
C383        C  0.07254472  0.06543618  0.92667136     0.77380
C384        C  0.07503941  0.00412043  0.57280465     0.78520
C385        C  0.50027207  0.17396455  0.53049694     0.77570
Zn386      Zn  0.50059556  0.51051564  0.55417103     1.49720
Zn387      Zn  0.45482646  0.57581439  0.98556317     1.49360
Zn388      Zn  0.04738339  0.57458788  0.98509119     1.49110
Zn389      Zn  0.50030980  0.47584129  0.96729670     1.49480
O390        O  0.50080542  0.53520571  0.99906471    -1.83700
O391        O  0.45267472  0.53922484  0.58180756    -0.74330
O392        O  0.47024317  0.64836653  0.97059400    -0.74150
O393        O  0.07826953  0.58189923  0.53390196    -0.73670
O394        O  0.42383396  0.58381720  0.53435508    -0.74350
O395        O  0.04813040  0.53935681  0.58162324    -0.73950
O396        O  0.03401271  0.64799321  0.96959823    -0.74530
O397        O  0.04430576  0.47303735  0.93322783    -0.73920
O398        O  0.42045257  0.54404095  0.94332695    -0.74680
O399        O  0.08070818  0.54154800  0.94265850    -0.74070
O400        O  0.45518275  0.47360727  0.93488505    -0.74530
O401        O  0.50027627  0.41020211  0.99644726    -0.74440
O402        O  0.50078684  0.43083421  0.55884235    -0.74230
C403        C  0.42583111  0.56885976  0.56968649     0.77560
C404        C  0.50215424  0.67162185  0.96675100     0.78050
C405        C  0.07547493  0.56791115  0.56939597     0.77010
C406        C  0.07416376  0.49884295  0.92582973     0.77380
C407        C  0.42575183  0.50036574  0.92742824     0.78520
C408        C  0.50030778  0.39716679  0.53195031     0.77570
C409        C  0.46508828  0.31440593  0.53000498    -0.01420
C410        C  0.49839415  0.34122396  0.54046070     0.08260
C411        C  0.03158151  0.31353955  0.55053817    -0.01540
C412        C  0.03175467  0.25895472  0.54972182    -0.01540
C413        C  0.49893070  0.23141081  0.53677789     0.08390
C414        C  0.46531715  0.26015866  0.52720951    -0.01730
Br415      Br  0.41988348  0.22812668  0.00596214    -0.00280
Br416      Br  0.41932384  0.35327036  0.01728092    -0.00350
Br417      Br  0.07770062  0.22354396  0.56643714    -0.00310
Br418      Br  0.07777688  0.35109979  0.56233300    -0.00300
C419        C  0.48948457  0.80722206  0.50226273    -0.01420
C420        C  0.49992482  0.83815607  0.96939900     0.08260
C421        C  0.01120612  0.81273926  0.93475508    -0.01540
C422        C  0.01155979  0.75802957  0.93315607    -0.01540
C423        C  0.50193187  0.72856269  0.96623286     0.08390
C424        C  0.49227753  0.75331818  0.50092922    -0.01730
Br425      Br  0.48545431  0.71269946  0.54803233    -0.00280
Br426      Br  0.46932555  0.83580202  0.54994623    -0.00350
Br427      Br  0.02572317  0.72294303  0.88612465    -0.00310
Br428      Br  0.02814676  0.85146669  0.88986994    -0.00300
C429        C  0.09261732  0.81223716  0.63684195    -0.01420
C430        C  0.12501571  0.83919143  0.62320983     0.08260
C431        C  0.15704975  0.81184909  0.60938537    -0.01540
C432        C  0.15679541  0.75762001  0.60934442    -0.01540
C433        C  0.12452053  0.73062605  0.62321299     0.08390
C434        C  0.09239525  0.75796439  0.63690114    -0.01730
Br435      Br  0.04862592  0.72102795  0.65694442    -0.00280
Br436      Br  0.04902095  0.84967317  0.65652052    -0.00350
Br437      Br  0.20026741  0.72028859  0.58927013    -0.00310
Br438      Br  0.20088752  0.84881424  0.58953844    -0.00300
C439        C  0.21459535  0.31346203  0.72272923    -0.01420
C440        C  0.24651735  0.34034858  0.70811950     0.08260
C441        C  0.27788569  0.31252796  0.69347120    -0.01540
C442        C  0.27792329  0.25788093  0.69458602    -0.01540
C443        C  0.24701134  0.23048081  0.71195634     0.08390
C444        C  0.21494472  0.25917521  0.72550848    -0.01730
Br445      Br  0.17233029  0.22658589  0.75196237    -0.00280
Br446      Br  0.17053319  0.35204096  0.74057856    -0.00350
Br447      Br  0.32070763  0.22167480  0.67189556    -0.00310
Br448      Br  0.32207140  0.34970130  0.67470629    -0.00300
C449        C  0.21780194  0.75788892  0.79695843    -0.01420
C450        C  0.25172101  0.73006573  0.78704870     0.08260
C451        C  0.28617440  0.75888511  0.78128238    -0.01540
C452        C  0.28604030  0.81320053  0.78426033    -0.01540
C453        C  0.25193642  0.84006766  0.79168609     0.08390
C454        C  0.21798034  0.81246287  0.79824297    -0.01730
Br455      Br  0.17094213  0.85040121  0.80587499    -0.00280
Br456      Br  0.17005022  0.72340370  0.80871879    -0.00350
Br457      Br  0.33253631  0.85228611  0.77572833    -0.00310
Br458      Br  0.33402936  0.72716877  0.76572933    -0.00300
C459        C  0.14523923  0.30862056  0.90158997    -0.01420
C460        C  0.12462126  0.33657222  0.87323560     0.08260
C461        C  0.10295101  0.31041064  0.84509731    -0.01540
C462        C  0.10211537  0.25620589  0.84513644    -0.01540
C463        C  0.12296105  0.22827015  0.87329069     0.08390
C464        C  0.14442178  0.25440545  0.90160321    -0.01730
Br465      Br  0.17295006  0.21578472  0.94007025    -0.00280
Br466      Br  0.17489834  0.34472391  0.94004634    -0.00350
Br467      Br  0.07190676  0.22003035  0.80717554    -0.00310
Br468      Br  0.07376970  0.34897008  0.80712970    -0.00300
C469        C  0.40785223  0.25611916  0.86723539    -0.01420
C470        C  0.37395622  0.22918625  0.87650134     0.08260
C471        C  0.34038201  0.25655557  0.88605567    -0.01540
C472        C  0.34063753  0.31075229  0.88610952    -0.01540
C473        C  0.37451631  0.33764288  0.87683613     0.08390
C474        C  0.40814704  0.31030657  0.86749410    -0.01730
Br475      Br  0.45433501  0.34701366  0.85357327    -0.00280
Br476      Br  0.45362533  0.21899776  0.85269548    -0.00350
Br477      Br  0.29477909  0.34807846  0.90003026    -0.00310
Br478      Br  0.29431014  0.21994830  0.90046779    -0.00300
C479        C  0.40091378  0.81143786  0.64725284    -0.01420
C480        C  0.37382026  0.83892288  0.62496846     0.08260
C481        C  0.34722073  0.81234550  0.60188140    -0.01540
C482        C  0.34762217  0.75813178  0.60117907    -0.01540
C483        C  0.37469523  0.73065601  0.62348136     0.08390
C484        C  0.40132246  0.75723955  0.64654247    -0.01730
Br485      Br  0.43807038  0.71921076  0.67728521    -0.00280
Br486      Br  0.43741087  0.84824048  0.67859994    -0.00350
Br487      Br  0.31124844  0.72128836  0.56973217    -0.00310
Br488      Br  0.31048281  0.85041505  0.57118245    -0.00300
C489        C  0.87384995  0.89572668  0.12525401     0.03550
C490        C  0.85234085  0.92249708  0.15225892    -0.12600
C491        C  0.85186469  0.97694924  0.15249313     0.01050
C492        C  0.87534174  0.00461806  0.12627261    -0.11120
C493        C  0.89792527  0.97698098  0.09950038     0.03550
C494        C  0.89578735  0.92288174  0.09863988    -0.10540
H495        H  0.83538335  0.90038562  0.17286607     0.09140
H496        H  0.87600201  0.04641446  0.12666694     0.06670
H497        H  0.91176300  0.90137996  0.07729623     0.06520
C498        C  0.87477697  0.67387113  0.12323320     0.03550
C499        C  0.85208226  0.64666827  0.14944931    -0.12600
C500        C  0.85165855  0.59255301  0.14964466     0.01050
C501        C  0.87563317  0.56522527  0.12375605    -0.11120
C502        C  0.89910429  0.59305970  0.09744436     0.03550
C503        C  0.89766785  0.64720847  0.09705693    -0.10540
H504        H  0.83405616  0.66797436  0.16940336     0.09140
H505        H  0.87595948  0.52340761  0.12403506     0.06670
H506        H  0.91498210  0.66896416  0.07668796     0.06520
C507        C  0.87458197  0.39452939  0.37616382     0.03550
C508        C  0.85376022  0.42116360  0.34821275    -0.12600
C509        C  0.85249207  0.47541760  0.34767607     0.01050
C510        C  0.87516337  0.50347370  0.37407863    -0.11120
C511        C  0.89756380  0.47619046  0.40153503     0.03550
C512        C  0.89569822  0.42194393  0.40311548    -0.10540
H513        H  0.83764837  0.39902710  0.32718905     0.09140
H514        H  0.87543656  0.54528372  0.37322219     0.06670
H515        H  0.91175596  0.40042886  0.42483767     0.06520
C516        C  0.87378574  0.17227149  0.37666044     0.03550
C517        C  0.89569113  0.14515191  0.40369574    -0.12600
C518        C  0.89718276  0.09109983  0.40343161     0.01050
C519        C  0.87422019  0.06351862  0.37687103    -0.11120
C520        C  0.85093356  0.09115364  0.35025670     0.03550
C521        C  0.85194250  0.14529719  0.34978194    -0.10540
H522        H  0.91282596  0.16660601  0.42428230     0.09140
H523        H  0.87450322  0.02170285  0.37687902     0.06670
H524        H  0.83477397  0.16682583  0.32895909     0.06520
C525        C  0.62262553  0.17148896  0.37289392     0.03550
C526        C  0.64702603  0.14491915  0.34817498    -0.12600
C527        C  0.64775653  0.09080916  0.34797581     0.01050
C528        C  0.62315177  0.06275803  0.37304285    -0.11120
C529        C  0.59815788  0.08995712  0.39793916     0.03550
C530        C  0.59834994  0.14416654  0.39756229    -0.10540
H531        H  0.66610290  0.16668372  0.32938918     0.09140
H532        H  0.62362220  0.02094243  0.37333548     0.06670
H533        H  0.57949574  0.16543693  0.41673485     0.06520
C534        C  0.62519774  0.39340101  0.37338326     0.03550
C535        C  0.64856403  0.42044278  0.34785102    -0.12600
C536        C  0.64948422  0.47484730  0.34769231     0.01050
C537        C  0.62565895  0.50233549  0.37343467    -0.11120
C538        C  0.60163925  0.47460184  0.39912920     0.03550
C539        C  0.60211837  0.42027436  0.39895340    -0.10540
H540        H  0.66624183  0.39852886  0.32799274     0.09140
H541        H  0.62580117  0.54415496  0.37347331     0.06670
H542        H  0.58423948  0.39827001  0.41880825     0.06520
Zn543      Zn  0.79607447  0.07668147  0.23836538     1.49720
Zn544      Zn  0.75043583  0.97569326  0.21956696     1.49360
Zn545      Zn  0.74981886  0.00943888  0.30613439     1.49110
Zn546      Zn  0.70430424  0.07471698  0.23689179     1.49480
O547        O  0.75029263  0.03509760  0.25132220    -1.83700
O548        O  0.82985017  0.04481631  0.19516550    -0.74330
O549        O  0.75090853  0.90947509  0.24797301    -0.74150
O550        O  0.79744109  0.03789786  0.33415235    -0.73670
O551        O  0.79505355  0.97446370  0.18700458    -0.74350
O552        O  0.82713699  0.08211848  0.28701867    -0.73950
O553        O  0.74981450  0.92961986  0.31040475    -0.74530
O554        O  0.67315705  0.08219741  0.28537011    -0.73920
O555        O  0.70647141  0.97277282  0.18558004    -0.74680
O556        O  0.70167986  0.03762281  0.33313928    -0.74070
O557        O  0.67087545  0.04218275  0.19478474    -0.74530
O558        O  0.71813069  0.14709512  0.21980076    -0.74440
O559        O  0.78107857  0.15109791  0.22500653    -0.74230
C560        C  0.82431265  0.00117920  0.17917507     0.77560
C561        C  0.75055245  0.89613460  0.28338910     0.78050
C562        C  0.82466354  0.06697064  0.32226014     0.77010
C563        C  0.67485119  0.06698101  0.32065704     0.77380
C564        C  0.67695843  0.99930564  0.17808748     0.78520
C565        C  0.74897940  0.17309024  0.21859608     0.77570
Zn566      Zn  0.75094982  0.47502797  0.27987235     1.49720
Zn567      Zn  0.79638528  0.57487254  0.26156798     1.49360
Zn568      Zn  0.75065657  0.50993650  0.19297958     1.49110
Zn569      Zn  0.70455506  0.57555927  0.26087288     1.49480
O570        O  0.75053314  0.53475013  0.24775932    -1.83700
O571        O  0.79556279  0.47232053  0.31306722    -0.74330
O572        O  0.82709426  0.58303901  0.21270052    -0.74150
O573        O  0.75000051  0.43015166  0.18882644    -0.73670
O574        O  0.83050473  0.54238503  0.30388869    -0.74350
O575        O  0.75008048  0.40935262  0.25138165    -0.73950
O576        O  0.79862444  0.53829283  0.16557310    -0.74530
O577        O  0.67313900  0.58203985  0.21248097    -0.73920
O578        O  0.78184541  0.64710448  0.27806720    -0.74680
O579        O  0.70300336  0.53934918  0.16513433    -0.74070
O580        O  0.71905476  0.64962671  0.27398963    -0.74530
O581        O  0.67129910  0.54284530  0.30441755    -0.74440
O582        O  0.70664741  0.47282496  0.31340759    -0.74230
C583        C  0.82489040  0.49901254  0.32054021     0.77560
C584        C  0.82526019  0.56797046  0.17755356     0.78050
C585        C  0.74944667  0.39633917  0.21602122     0.77010
C586        C  0.67564398  0.56792463  0.17718329     0.77380
C587        C  0.75073901  0.67251713  0.27990603     0.78520
C588        C  0.67719891  0.49931636  0.32099950     0.77570
C589        C  0.62561977  0.89614220  0.12375290     0.03550
C590        C  0.64803644  0.92191863  0.15054248    -0.12600
C591        C  0.64949344  0.97621307  0.15102837     0.01050
C592        C  0.62654186  0.00519188  0.12509949    -0.11120
C593        C  0.60320849  0.97890567  0.09843226     0.03550
C594        C  0.60384894  0.92450833  0.09751450    -0.10540
H595        H  0.66480473  0.89915019  0.17094766     0.09140
H596        H  0.62669167  0.04699608  0.12579712     0.06670
H597        H  0.58660186  0.90368920  0.07664564     0.06520
C598        C  0.62451036  0.67366028  0.12349031     0.03550
C599        C  0.64753298  0.64654672  0.14966433    -0.12600
C600        C  0.64898222  0.59241166  0.14938268     0.01050
C601        C  0.62559314  0.56489118  0.12322967    -0.11120
C602        C  0.60163862  0.59247803  0.09723835     0.03550
C603        C  0.60193764  0.64664259  0.09724595    -0.10540
H604        H  0.66519961  0.66797175  0.16981143     0.09140
H605        H  0.62600676  0.52307500  0.12311319     0.06670
H606        H  0.58395148  0.66808232  0.07709395     0.06520
Zn607      Zn  0.95459885  0.07622638  0.01435262     1.49720
Zn608      Zn  0.00129545  0.97911024  0.03405545     1.49360
Zn609      Zn  0.99833090  0.00770000  0.44614493     1.49110
Zn610      Zn  0.54640562  0.07708591  0.01108492     1.49480
O611        O  0.00024792  0.03618302  0.50009694    -1.83700
O612        O  0.92060592  0.04424787  0.05668021    -0.74330
O613        O  0.00551197  0.91332422  0.00719893    -0.74150
O614        O  0.95002669  0.03608259  0.41920377    -0.73670
O615        O  0.95578521  0.97438336  0.06625107    -0.74350
O616        O  0.92335951  0.08357420  0.46593060    -0.73990
O617        O  0.99649806  0.92716059  0.44487645    -0.74530
O618        O  0.57541313  0.08157416  0.46141533    -0.73920
O619        O  0.54441254  0.97924183  0.06817397    -0.74680
O620        O  0.54562409  0.03516194  0.41604879    -0.74070
O621        O  0.58172393  0.04544886  0.05358221    -0.74530
O622        O  0.53199212  0.15150980  0.02345615    -0.74440
O623        O  0.96926339  0.14830105  0.03043076    -0.74230
C624        C  0.92614908  0.00084530  0.07326604     0.77560
C625        C  0.00093034  0.89588072  0.47341705     0.78050
C626        C  0.92409144  0.06701241  0.43113859     0.77010
C627        C  0.57254472  0.06543619  0.42667137     0.77380
C628        C  0.57503941  0.00412043  0.07280465     0.78520
C629        C  0.00027208  0.17396455  0.03049693     0.77570
Zn630      Zn  0.00059555  0.51051564  0.05417103     1.49720
Zn631      Zn  0.95482647  0.57581439  0.48556317     1.49360
Zn632      Zn  0.54738339  0.57458788  0.48509119     1.49110
Zn633      Zn  0.00030980  0.47584129  0.46729670     1.49480
O634        O  0.00080542  0.53520571  0.49906471    -1.83700
O635        O  0.95267472  0.53922484  0.08180756    -0.74330
O636        O  0.97024317  0.64836653  0.47059399    -0.74150
O637        O  0.57826953  0.58189922  0.03390196    -0.73670
O638        O  0.92383396  0.58381720  0.03435508    -0.74350
O639        O  0.54813040  0.53935682  0.08162324    -0.73950
O640        O  0.53401271  0.64799322  0.46959824    -0.74530
O641        O  0.54430576  0.47303736  0.43322783    -0.73920
O642        O  0.92045258  0.54404095  0.44332695    -0.74680
O643        O  0.58070818  0.54154801  0.44265851    -0.74070
O644        O  0.95518275  0.47360726  0.43488505    -0.74530
O645        O  0.00027627  0.41020211  0.49644726    -0.74440
O646        O  0.00078684  0.43083421  0.05884235    -0.74230
C647        C  0.92583112  0.56885977  0.06968650     0.77560
C648        C  0.00215424  0.67162186  0.46675100     0.78050
C649        C  0.57547493  0.56791115  0.06939597     0.77010
C650        C  0.57416376  0.49884296  0.42582973     0.77380
C651        C  0.92575183  0.50036573  0.42742824     0.78520
C652        C  0.00030778  0.39716680  0.03195031     0.77570
C653        C  0.96508828  0.31440593  0.03000502    -0.01420
C654        C  0.99839416  0.34122397  0.04046070     0.08260
C655        C  0.53158154  0.31353956  0.05053812    -0.01540
C656        C  0.53175469  0.25895472  0.04972177    -0.01540
C657        C  0.99893071  0.23141082  0.03677788     0.08390
C658        C  0.96531715  0.26015867  0.02720954    -0.01730
Br659      Br  0.91988351  0.22812667  0.50596204    -0.00280
Br660      Br  0.91932385  0.35327036  0.51728082    -0.00350
Br661      Br  0.57770068  0.22354398  0.06643702    -0.00310
Br662      Br  0.57777691  0.35109980  0.06233289    -0.00300
C663        C  0.98948457  0.80722206  0.00226273    -0.01420
C664        C  0.99992483  0.83815607  0.46939900     0.08260
C665        C  0.51120611  0.81273926  0.43475508    -0.01540
C666        C  0.51155979  0.75802957  0.43315607    -0.01540
C667        C  0.00193186  0.72856269  0.46623286     0.08390
C668        C  0.99227752  0.75331818  0.00092922    -0.01730
Br669      Br  0.98545430  0.71269946  0.04803232    -0.00280
Br670      Br  0.96932553  0.83580202  0.04994622    -0.00350
Br671      Br  0.52572316  0.72294303  0.38612464    -0.00310
Br672      Br  0.52814675  0.85146669  0.38986994    -0.00300
C673        C  0.59261733  0.81223716  0.13684196    -0.01420
C674        C  0.62501572  0.83919143  0.12320982     0.08260
C675        C  0.65704975  0.81184909  0.10938534    -0.01540
C676        C  0.65679540  0.75762001  0.10934439    -0.01540
C677        C  0.62452054  0.73062605  0.12321298     0.08390
C678        C  0.59239526  0.75796439  0.13690114    -0.01730
Br679      Br  0.54862594  0.72102795  0.15694444    -0.00280
Br680      Br  0.54902097  0.84967317  0.15652054    -0.00350
Br681      Br  0.70026739  0.72028859  0.08927008    -0.00310
Br682      Br  0.70088751  0.84881425  0.08953840    -0.00300
C683        C  0.71459536  0.31346203  0.22272922    -0.01420
C684        C  0.74651736  0.34034859  0.20811951     0.08260
C685        C  0.77788570  0.31252797  0.19347122    -0.01540
C686        C  0.77792330  0.25788094  0.19458604    -0.01540
C687        C  0.74701134  0.23048081  0.21195635     0.08390
C688        C  0.71494472  0.25917522  0.22550847    -0.01730
Br689      Br  0.67233028  0.22658590  0.25196235    -0.00280
Br690      Br  0.67053319  0.35204097  0.24057854    -0.00350
Br691      Br  0.82070765  0.22167480  0.17189560    -0.00310
Br692      Br  0.82207142  0.34970130  0.17470633    -0.00300
C693        C  0.71780199  0.75788892  0.29695855    -0.01420
C694        C  0.75172103  0.73006574  0.28704870     0.08260
C695        C  0.78617440  0.75888512  0.28128227    -0.01540
C696        C  0.78604032  0.81320054  0.28426022    -0.01540
C697        C  0.75193645  0.84006765  0.29168609     0.08390
C698        C  0.71798039  0.81246286  0.29824308    -0.01730
Br699      Br  0.67094220  0.85040119  0.30587524    -0.00280
Br700      Br  0.67005033  0.72340366  0.30871907    -0.00350
Br701      Br  0.83253630  0.85228612  0.27572810    -0.00310
Br702      Br  0.83402930  0.72716878  0.26572901    -0.00300
C703        C  0.64523922  0.30862057  0.40158996    -0.01420
C704        C  0.62462126  0.33657224  0.37323559     0.08260
C705        C  0.60295102  0.31041065  0.34509730    -0.01540
C706        C  0.60211538  0.25620591  0.34513643    -0.01540
C707        C  0.62296105  0.22827016  0.37329068     0.08390
C708        C  0.64442177  0.25440547  0.40160321    -0.01730
Br709      Br  0.67295004  0.21578474  0.44007026    -0.00280
Br710      Br  0.67489832  0.34472392  0.44004634    -0.00350
Br711      Br  0.57190677  0.22003036  0.30717552    -0.00310
Br712      Br  0.57376971  0.34897009  0.30712968    -0.00300
C713        C  0.90785223  0.25611916  0.36723540    -0.01420
C714        C  0.87395621  0.22918624  0.37650135     0.08260
C715        C  0.84038201  0.25655556  0.38605567    -0.01540
C716        C  0.84063753  0.31075229  0.38610952    -0.01540
C717        C  0.87451631  0.33764287  0.37683614     0.08390
C718        C  0.90814704  0.31030657  0.36749411    -0.01730
Br719      Br  0.95433501  0.34701365  0.35357328    -0.00280
Br720      Br  0.95362533  0.21899776  0.35269549    -0.00350
Br721      Br  0.79477909  0.34807845  0.40003026    -0.00310
Br722      Br  0.79431013  0.21994829  0.40046779    -0.00300
C723        C  0.90091378  0.81143788  0.14725283    -0.01420
C724        C  0.87382026  0.83892289  0.12496846     0.08260
C725        C  0.84722073  0.81234551  0.10188140    -0.01540
C726        C  0.84762216  0.75813179  0.10117907    -0.01540
C727        C  0.87469523  0.73065601  0.12348136     0.08390
C728        C  0.90132247  0.75723956  0.14654246    -0.01730
Br729      Br  0.93807039  0.71921077  0.17728519    -0.00280
Br730      Br  0.93741088  0.84824050  0.17859993    -0.00350
Br731      Br  0.81124843  0.72128836  0.06973218    -0.00310
Br732      Br  0.81048280  0.85041505  0.07118246    -0.00300
C733        C  0.87384995  0.89572667  0.62525401     0.03550
C734        C  0.85234085  0.92249707  0.65225892    -0.12600
C735        C  0.85186469  0.97694923  0.65249313     0.01050
C736        C  0.87534174  0.00461805  0.62627260    -0.11120
C737        C  0.89792527  0.97698097  0.59950038     0.03550
C738        C  0.89578736  0.92288173  0.59863988    -0.10540
H739        H  0.83538335  0.90038561  0.67286607     0.09140
H740        H  0.87600201  0.04641445  0.62666694     0.06670
H741        H  0.91176300  0.90137995  0.57729623     0.06520
C742        C  0.87477696  0.67387113  0.62323319     0.03550
C743        C  0.85208225  0.64666826  0.64944931    -0.12600
C744        C  0.85165855  0.59255300  0.64964465     0.01050
C745        C  0.87563317  0.56522526  0.62375604    -0.11120
C746        C  0.89910429  0.59305969  0.59744436     0.03550
C747        C  0.89766785  0.64720846  0.59705693    -0.10540
H748        H  0.83405615  0.66797435  0.66940335     0.09140
H749        H  0.87595948  0.52340760  0.62403505     0.06670
H750        H  0.91498210  0.66896416  0.57668796     0.06520
C751        C  0.87458197  0.39452939  0.87616381     0.03550
C752        C  0.85376022  0.42116360  0.84821274    -0.12600
C753        C  0.85249207  0.47541760  0.84767607     0.01050
C754        C  0.87516337  0.50347370  0.87407862    -0.11120
C755        C  0.89756380  0.47619047  0.90153503     0.03550
C756        C  0.89569822  0.42194394  0.90311548    -0.10540
H757        H  0.83764838  0.39902711  0.82718905     0.09140
H758        H  0.87543656  0.54528373  0.87322219     0.06670
H759        H  0.91175596  0.40042886  0.92483767     0.06520
C760        C  0.87378575  0.17227149  0.87666043     0.03550
C761        C  0.89569113  0.14515191  0.90369574    -0.12600
C762        C  0.89718276  0.09109983  0.90343161     0.01050
C763        C  0.87422019  0.06351863  0.87687102    -0.11120
C764        C  0.85093356  0.09115364  0.85025670     0.03550
C765        C  0.85194250  0.14529719  0.84978193    -0.10540
H766        H  0.91282596  0.16660602  0.92428231     0.09140
H767        H  0.87450323  0.02170286  0.87687901     0.06670
H768        H  0.83477397  0.16682583  0.82895909     0.06520
C769        C  0.62262554  0.17148895  0.87289392     0.03550
C770        C  0.64702603  0.14491914  0.84817498    -0.12600
C771        C  0.64775654  0.09080915  0.84797581     0.01050
C772        C  0.62315177  0.06275802  0.87304285    -0.11120
C773        C  0.59815789  0.08995711  0.89793916     0.03550
C774        C  0.59834994  0.14416652  0.89756229    -0.10540
H775        H  0.66610291  0.16668371  0.82938918     0.09140
H776        H  0.62362220  0.02094242  0.87333548     0.06670
H777        H  0.57949574  0.16543692  0.91673485     0.06520
C778        C  0.62519775  0.39340100  0.87338327     0.03550
C779        C  0.64856404  0.42044276  0.84785103    -0.12600
C780        C  0.64948423  0.47484728  0.84769232     0.01050
C781        C  0.62565895  0.50233548  0.87343467    -0.11120
C782        C  0.60163925  0.47460183  0.89912921     0.03550
C783        C  0.60211838  0.42027435  0.89895340    -0.10540
H784        H  0.66624184  0.39852884  0.82799276     0.09140
H785        H  0.62580117  0.54415495  0.87347331     0.06670
H786        H  0.58423948  0.39827000  0.91880826     0.06520
Zn787      Zn  0.79607447  0.07668147  0.73836537     1.49720
Zn788      Zn  0.75043583  0.97569325  0.71956696     1.49360
Zn789      Zn  0.74981887  0.00943888  0.80613439     1.49110
Zn790      Zn  0.70430425  0.07471697  0.73689179     1.49480
O791        O  0.75029263  0.03509759  0.75132220    -1.83700
O792        O  0.82985017  0.04481630  0.69516550    -0.74330
O793        O  0.75090852  0.90947508  0.74797301    -0.74150
O794        O  0.79744110  0.03789786  0.83415235    -0.73670
O795        O  0.79505355  0.97446370  0.68700458    -0.74350
O796        O  0.82713699  0.08211848  0.78701867    -0.73950
O797        O  0.74981451  0.92961986  0.81040474    -0.74530
O798        O  0.67315705  0.08219740  0.78537011    -0.73920
O799        O  0.70647141  0.97277282  0.68558004    -0.74680
O800        O  0.70167987  0.03762280  0.83313928    -0.74070
O801        O  0.67087545  0.04218274  0.69478474    -0.74530
O802        O  0.71813069  0.14709511  0.71980076    -0.74440
O803        O  0.78107857  0.15109791  0.72500652    -0.74230
C804        C  0.82431266  0.00117919  0.67917507     0.77560
C805        C  0.75055245  0.89613460  0.78338910     0.78050
C806        C  0.82466355  0.06697064  0.82226014     0.77010
C807        C  0.67485119  0.06698100  0.82065705     0.77380
C808        C  0.67695843  0.99930564  0.67808748     0.78520
C809        C  0.74897940  0.17309023  0.71859608     0.77570
Zn810      Zn  0.75094982  0.47502795  0.77987235     1.49720
Zn811      Zn  0.79638528  0.57487254  0.76156797     1.49360
Zn812      Zn  0.75065656  0.50993649  0.69297958     1.49110
Zn813      Zn  0.70455506  0.57555925  0.76087289     1.49480
O814        O  0.75053314  0.53475012  0.74775932    -1.83700
O815        O  0.79556280  0.47232053  0.81306721    -0.74330
O816        O  0.82709426  0.58303899  0.71270052    -0.74150
O817        O  0.75000050  0.43015166  0.68882644    -0.73670
O818        O  0.83050473  0.54238504  0.80388869    -0.74350
O819        O  0.75008048  0.40935262  0.75138164    -0.73950
O820        O  0.79862443  0.53829283  0.66557310    -0.74530
O821        O  0.67313900  0.58203984  0.71248098    -0.73920
O822        O  0.78184540  0.64710448  0.77806717    -0.74680
O823        O  0.70300335  0.53934918  0.66513434    -0.74070
O824        O  0.71905475  0.64962668  0.77398965    -0.74530
O825        O  0.67129911  0.54284527  0.80441756    -0.74440
O826        O  0.70664741  0.47282494  0.81340760    -0.74230
C827        C  0.82489040  0.49901254  0.82054021     0.77560
C828        C  0.82526019  0.56797044  0.67755355     0.78050
C829        C  0.74944667  0.39633916  0.71602121     0.77010
C830        C  0.67564398  0.56792463  0.67718329     0.77380
C831        C  0.75073900  0.67251712  0.77990602     0.78520
C832        C  0.67719891  0.49931634  0.82099951     0.77570
C833        C  0.62561977  0.89614220  0.62375291     0.03550
C834        C  0.64803644  0.92191863  0.65054248    -0.12600
C835        C  0.64949344  0.97621307  0.65102837     0.01050
C836        C  0.62654186  0.00519188  0.62509949    -0.11120
C837        C  0.60320849  0.97890567  0.59843226     0.03550
C838        C  0.60384894  0.92450833  0.59751450    -0.10540
H839        H  0.66480472  0.89915019  0.67094767     0.09140
H840        H  0.62669167  0.04699608  0.62579712     0.06670
H841        H  0.58660186  0.90368920  0.57664564     0.06520
C842        C  0.62451036  0.67366028  0.62349032     0.03550
C843        C  0.64753297  0.64654672  0.64966434    -0.12600
C844        C  0.64898221  0.59241166  0.64938269     0.01050
C845        C  0.62559314  0.56489118  0.62322968    -0.11120
C846        C  0.60163861  0.59247803  0.59723836     0.03550
C847        C  0.60193763  0.64664259  0.59724595    -0.10540
H848        H  0.66519959  0.66797175  0.66981144     0.09140
H849        H  0.62600675  0.52307500  0.62311320     0.06670
H850        H  0.58395148  0.66808232  0.57709395     0.06520
Zn851      Zn  0.95459885  0.07622638  0.51435262     1.49720
Zn852      Zn  0.00129545  0.97911024  0.53405545     1.49360
Zn853      Zn  0.99833090  0.00770000  0.94614493     1.49110
Zn854      Zn  0.54640562  0.07708591  0.51108492     1.49480
O855        O  0.00024792  0.03618302  0.00009694    -1.83700
O856        O  0.92060592  0.04424786  0.55668021    -0.74330
O857        O  0.00551197  0.91332422  0.50719893    -0.74150
O858        O  0.95002669  0.03608258  0.91920377    -0.73670
O859        O  0.95578521  0.97438336  0.56625107    -0.74350
O860        O  0.92335951  0.08357421  0.96593060    -0.73990
O861        O  0.99649806  0.92716058  0.94487646    -0.74530
O862        O  0.57541313  0.08157415  0.96141532    -0.73920
O863        O  0.54441254  0.97924183  0.56817397    -0.74680
O864        O  0.54562409  0.03516194  0.91604879    -0.74070
O865        O  0.58172394  0.04544886  0.55358221    -0.74530
O866        O  0.53199211  0.15150981  0.52345616    -0.74440
O867        O  0.96926338  0.14830104  0.53043076    -0.74230
C868        C  0.92614909  0.00084529  0.57326603     0.77560
C869        C  0.00093034  0.89588072  0.97341705     0.78050
C870        C  0.92409144  0.06701242  0.93113859     0.77010
C871        C  0.57254472  0.06543618  0.92667136     0.77380
C872        C  0.57503941  0.00412043  0.57280465     0.78520
C873        C  0.00027207  0.17396455  0.53049693     0.77570
Zn874      Zn  0.00059555  0.51051564  0.55417103     1.49720
Zn875      Zn  0.95482646  0.57581439  0.98556317     1.49360
Zn876      Zn  0.54738339  0.57458788  0.98509119     1.49110
Zn877      Zn  0.00030980  0.47584129  0.96729670     1.49480
O878        O  0.00080542  0.53520571  0.99906471    -1.83700
O879        O  0.95267472  0.53922483  0.58180756    -0.74330
O880        O  0.97024317  0.64836653  0.97059400    -0.74150
O881        O  0.57826953  0.58189923  0.53390196    -0.73670
O882        O  0.92383396  0.58381720  0.53435508    -0.74350
O883        O  0.54813040  0.53935682  0.58162324    -0.73950
O884        O  0.53401271  0.64799322  0.96959823    -0.74530
O885        O  0.54430576  0.47303735  0.93322783    -0.73920
O886        O  0.92045258  0.54404095  0.94332695    -0.74680
O887        O  0.58070818  0.54154801  0.94265850    -0.74070
O888        O  0.95518275  0.47360727  0.93488505    -0.74530
O889        O  0.00027627  0.41020211  0.99644726    -0.74440
O890        O  0.00078684  0.43083421  0.55884235    -0.74230
C891        C  0.92583111  0.56885976  0.56968649     0.77560
C892        C  0.00215424  0.67162185  0.96675100     0.78050
C893        C  0.57547493  0.56791115  0.56939597     0.77010
C894        C  0.57416376  0.49884296  0.92582973     0.77380
C895        C  0.92575183  0.50036574  0.92742824     0.78520
C896        C  0.00030778  0.39716679  0.53195031     0.77570
C897        C  0.96508828  0.31440593  0.53000498    -0.01420
C898        C  0.99839415  0.34122396  0.54046070     0.08260
C899        C  0.53158152  0.31353955  0.55053817    -0.01540
C900        C  0.53175467  0.25895472  0.54972182    -0.01540
C901        C  0.99893070  0.23141081  0.53677789     0.08390
C902        C  0.96531715  0.26015866  0.52720950    -0.01730
Br903      Br  0.91988349  0.22812668  0.00596213    -0.00280
Br904      Br  0.91932384  0.35327036  0.01728092    -0.00350
Br905      Br  0.57770063  0.22354396  0.56643713    -0.00310
Br906      Br  0.57777688  0.35109979  0.56233300    -0.00300
C907        C  0.98948457  0.80722206  0.50226273    -0.01420
C908        C  0.99992482  0.83815607  0.96939901     0.08260
C909        C  0.51120612  0.81273926  0.93475508    -0.01540
C910        C  0.51155979  0.75802957  0.93315607    -0.01540
C911        C  0.00193187  0.72856269  0.96623286     0.08390
C912        C  0.99227753  0.75331818  0.50092922    -0.01730
Br913      Br  0.98545431  0.71269946  0.54803232    -0.00280
Br914      Br  0.96932555  0.83580202  0.54994623    -0.00350
Br915      Br  0.52572316  0.72294303  0.88612464    -0.00310
Br916      Br  0.52814676  0.85146669  0.88986994    -0.00300
C917        C  0.59261732  0.81223716  0.63684195    -0.01420
C918        C  0.62501571  0.83919143  0.62320983     0.08260
C919        C  0.65704975  0.81184909  0.60938537    -0.01540
C920        C  0.65679541  0.75762001  0.60934442    -0.01540
C921        C  0.62452053  0.73062605  0.62321300     0.08390
C922        C  0.59239525  0.75796439  0.63690114    -0.01730
Br923      Br  0.54862592  0.72102795  0.65694442    -0.00280
Br924      Br  0.54902095  0.84967317  0.65652052    -0.00350
Br925      Br  0.70026740  0.72028859  0.58927013    -0.00310
Br926      Br  0.70088752  0.84881425  0.58953844    -0.00300
C927        C  0.71459536  0.31346203  0.72272923    -0.01420
C928        C  0.74651735  0.34034858  0.70811950     0.08260
C929        C  0.77788569  0.31252796  0.69347120    -0.01540
C930        C  0.77792329  0.25788093  0.69458602    -0.01540
C931        C  0.74701134  0.23048081  0.71195635     0.08390
C932        C  0.71494472  0.25917521  0.72550848    -0.01730
Br933      Br  0.67233029  0.22658589  0.75196238    -0.00280
Br934      Br  0.67053319  0.35204096  0.74057857    -0.00350
Br935      Br  0.82070764  0.22167480  0.67189556    -0.00310
Br936      Br  0.82207140  0.34970130  0.67470629    -0.00300
C937        C  0.71780194  0.75788892  0.79695843    -0.01420
C938        C  0.75172101  0.73006573  0.78704870     0.08260
C939        C  0.78617440  0.75888511  0.78128239    -0.01540
C940        C  0.78604031  0.81320053  0.78426033    -0.01540
C941        C  0.75193643  0.84006766  0.79168609     0.08390
C942        C  0.71798034  0.81246287  0.79824297    -0.01730
Br943      Br  0.67094214  0.85040121  0.80587499    -0.00280
Br944      Br  0.67005022  0.72340370  0.80871879    -0.00350
Br945      Br  0.83253631  0.85228611  0.77572834    -0.00310
Br946      Br  0.83402936  0.72716877  0.76572935    -0.00300
C947        C  0.64523923  0.30862056  0.90158997    -0.01420
C948        C  0.62462126  0.33657222  0.87323560     0.08260
C949        C  0.60295102  0.31041064  0.84509731    -0.01540
C950        C  0.60211538  0.25620590  0.84513644    -0.01540
C951        C  0.62296105  0.22827015  0.87329069     0.08390
C952        C  0.64442178  0.25440545  0.90160321    -0.01730
Br953      Br  0.67295006  0.21578472  0.94007025    -0.00280
Br954      Br  0.67489834  0.34472391  0.94004634    -0.00350
Br955      Br  0.57190676  0.22003035  0.80717554    -0.00310
Br956      Br  0.57376970  0.34897008  0.80712970    -0.00300
C957        C  0.90785223  0.25611916  0.86723540    -0.01420
C958        C  0.87395622  0.22918625  0.87650134     0.08260
C959        C  0.84038201  0.25655557  0.88605567    -0.01540
C960        C  0.84063753  0.31075229  0.88610952    -0.01540
C961        C  0.87451631  0.33764288  0.87683613     0.08390
C962        C  0.90814704  0.31030657  0.86749410    -0.01730
Br963      Br  0.95433501  0.34701366  0.85357327    -0.00280
Br964      Br  0.95362533  0.21899776  0.85269548    -0.00350
Br965      Br  0.79477909  0.34807846  0.90003026    -0.00310
Br966      Br  0.79431013  0.21994830  0.90046779    -0.00300
C967        C  0.90091378  0.81143786  0.64725284    -0.01420
C968        C  0.87382026  0.83892288  0.62496845     0.08260
C969        C  0.84722073  0.81234550  0.60188140    -0.01540
C970        C  0.84762217  0.75813178  0.60117906    -0.01540
C971        C  0.87469522  0.73065601  0.62348136     0.08390
C972        C  0.90132246  0.75723955  0.64654246    -0.01730
Br973      Br  0.93807038  0.71921075  0.67728520    -0.00280
Br974      Br  0.93741087  0.84824048  0.67859994    -0.00350
Br975      Br  0.81124844  0.72128835  0.56973217    -0.00310
Br976      Br  0.81048281  0.85041505  0.57118244    -0.00300
loop_ 
_geom_bond_atom_site_label_1 
_geom_bond_atom_site_label_2 
_geom_bond_distance 
_geom_bond_site_symmetry_2 
_ccdc_geom_bond_type 
C1            C2   1.385       .  A
C1            C6   1.383       .  A
C1          C236   1.471       .  S
C2            C3   1.410       .  A
C2            H7   1.085       .  S
C3            C4   1.412   1_565  A
C3           C72   1.474   1_565  S
C4            C5   1.412   1_545  A
C4            H8   1.083       .  S
C5            C6   1.404       .  A
C5          C136   1.471   1_565  S
C6            H9   1.080       .  S
C10          C11   1.390       .  A
C10          C15   1.392       .  A
C10         C239   1.471       .  S
C11          C12   1.401       .  A
C11          H16   1.085       .  S
C12          C13   1.416       .  A
C12          C96   1.474       .  S
C13          C14   1.416       .  A
C13          H17   1.083       .  S
C14          C15   1.403       .  A
C14         C159   1.478       .  S
C15          H18   1.082       .  S
C19          C20   1.385       .  A
C19          C24   1.386       .  A
C19         C229   1.473       .  S
C20          C21   1.406       .  A
C20          H25   1.085       .  S
C21          C22   1.412       .  A
C21          C95   1.472       .  S
C22          C23   1.412       .  A
C22          H26   1.083       .  S
C23          C24   1.407       .  A
C23         C163   1.473       .  S
C24          H27   1.085       .  S
C28          C29   1.391       .  A
C28          C33   1.393       .  A
C28         C226   1.474       .  S
C29          C30   1.401       .  A
C29          H34   1.085       .  S
C30          C31   1.415       .  A
C30         C138   1.474       .  S
C31          C32   1.415       .  A
C31          H35   1.083       .  S
C32          C33   1.403       .  A
C32          C74   1.475       .  S
C33          H36   1.085       .  S
C37          C38   1.390       .  A
C37          C42   1.391       .  A
C37         C219   1.471       .  S
C38          C39   1.401       .  A
C38          H43   1.084       .  S
C39          C40   1.415       .  A
C39          C75   1.473       .  S
C40          C41   1.415       .  A
C40          H44   1.083       .  S
C41          C42   1.404       .  A
C41         C139   1.475       .  S
C42          H45   1.085       .  S
C46          C47   1.386       .  A
C46          C51   1.385       .  A
C46         C216   1.472       .  S
C47          C48   1.409       .  A
C47          H52   1.084       .  S
C48          C49   1.412       .  A
C48         C100   1.475       .  S
C49          C50   1.412       .  A
C49          H53   1.083       .  S
C50          C51   1.407       .  A
C50         C162   1.472       .  S
C51          H54   1.085       .  S
Zn55         O59   1.979       .  S
Zn55         O60   2.074       .  S
Zn55         O64   2.002       .  S
Zn55         O71   2.045       .  S
Zn56         O59   1.894   1_565  S
Zn56         O61   1.967       .  S
Zn56         O63   1.921       .  S
Zn56         O67   1.934       .  S
Zn57         O59   1.995       .  S
Zn57         O62   2.064       .  S
Zn57         O65   2.071   1_545  S
Zn57         O68   2.058       .  S
Zn58         O59   1.967       .  S
Zn58         O66   2.003       .  S
Zn58         O69   2.049       .  S
Zn58         O70   2.019       .  S
O60          C72   1.276       .  A
O61          C73   1.264       .  A
O62          C74   1.279       .  A
O63          C72   1.264   1_565  A
O64          C74   1.275       .  A
O65          C73   1.277       .  A
O66          C75   1.275       .  A
O67          C76   1.264       .  A
O68          C75   1.279       .  A
O69          C76   1.272   1_545  A
O70          C77   1.273       .  A
O71          C77   1.276       .  A
C73         C209   1.478       .  S
C76         C103   1.469       .  S
C77         C199   1.503       .  S
Zn78         O82   1.894       .  S
Zn78         O83   1.934       .  S
Zn78         O87   1.970       .  S
Zn78         O94   1.932       .  S
Zn79         O82   1.972       .  S
Zn79         O84   2.005       .  S
Zn79         O86   2.057       .  S
Zn79         O90   2.023       .  S
Zn80         O82   1.997       .  S
Zn80         O85   2.072       .  S
Zn80         O88   2.057       .  S
Zn80         O91   2.064       .  S
Zn81         O82   1.976       .  S
Zn81         O89   2.001       .  S
Zn81         O92   2.039       .  S
Zn81         O93   2.073       .  S
O83          C95   1.265       .  A
O84          C96   1.276       .  A
O85          C97   1.277       .  A
O86          C95   1.272       .  A
O87          C97   1.266       .  A
O88          C96   1.279       .  A
O89          C98   1.274       .  A
O90          C99   1.272       .  A
O91          C98   1.279       .  A
O92          C99   1.274       .  A
O93         C100   1.276       .  A
O94         C100   1.265       .  A
C97         C196   1.481       .  S
C98         C112   1.475       .  S
C99         C206   1.513       .  S
C101        C102   1.386       .  A
C101        C106   1.387       .  A
C101        C186   1.475       .  S
C102        C103   1.407       .  A
C102        H107   1.085       .  S
C103        C104   1.411   1_565  A
C104        C105   1.408   1_545  A
C104        H108   1.083       .  S
C105        C106   1.409       .  A
C105        C140   1.471   1_565  S
C106        H109   1.085       .  S
C110        C111   1.393       .  A
C110        C115   1.393       .  A
C110        C189   1.475       .  S
C111        C112   1.403       .  A
C111        H116   1.085       .  S
C112        C113   1.414       .  A
C113        C114   1.414       .  A
C113        H117   1.083       .  S
C114        C115   1.403       .  A
C114        C161   1.474       .  S
C115        H118   1.085       .  S
Zn119       O367   1.966       .  S
Zn119       O124   2.050       .  S
Zn119       O135   2.018       .  S
Zn119       O372   2.000   1_554  S
Zn120       O367   1.877   1_565  S
Zn120       O125   1.950       .  S
Zn120       O127   1.942       .  S
Zn120       O619   1.911       .  S
Zn121       O123   2.005       .  S
Zn121       O126   2.058       .  S
Zn121       O129   2.087   1_545  S
Zn121       O620   2.074       .  S
Zn122       O855   1.970       .  S
Zn122       O133   2.077       .  S
Zn122       O134   2.039       .  S
Zn122       O374   1.990   1_554  S
O123       Zn363   1.966       .  S
O123       Zn364   1.877   1_545  S
O123       Zn854   1.970       .  S
O124        C136   1.271       .  A
O125        C381   1.261   1_554  A
O126        C138   1.279       .  A
O127        C136   1.265   1_565  A
O128       Zn363   2.000       .  S
O128        C138   1.275       .  A
O129        C137   1.278       .  A
O130       Zn366   1.990       .  S
O130        C139   1.274       .  A
O131       Zn608   1.911       .  S
O131        C140   1.261   1_565  A
O132       Zn609   2.074   1_455  S
O132        C139   1.281       .  A
O133        C140   1.276       .  A
O134        C629   1.275       .  A
O135        C141   1.272       .  A
C137        C176   1.503       .  S
C137        O369   1.261       .  A
C141        C169   1.506       .  S
C141        O622   1.275       .  A
Zn142       O390   1.997   1_554  S
Zn142       O147   2.066       .  S
Zn142       O158   2.068       .  S
Zn142       O639   2.056       .  S
Zn143       O146   1.973       .  S
Zn143       O148   2.018       .  S
Zn143       O154   2.063       .  S
Zn143       O394   2.010       .  S
Zn144       O634   1.980       .  S
Zn144       O152   2.024       .  S
Zn144       O155   2.059       .  S
Zn144       O393   2.008       .  S
Zn145       O146   1.894       .  S
Zn145       O156   1.934       .  S
Zn145       O157   1.967       .  S
Zn145       O641   1.935       .  S
O146       Zn386   1.997       .  S
O146       Zn632   1.980       .  S
O147        C159   1.279       .  A
O148        C160   1.275       .  A
O149       Zn388   2.008   1_554  S
O149        C161   1.275       .  A
O150       Zn387   2.010   1_554  S
O150        C159   1.275       .  A
O151       Zn630   2.056       .  S
O151        C161   1.279       .  A
O152        C648   1.273       .  A
O153       Zn633   1.935       .  S
O153        C162   1.265       .  A
O154        C163   1.274       .  A
O155        C162   1.274       .  A
O156        C163   1.265       .  A
O157        C408   1.265       .  A
O158        C164   1.277       .  A
C160        C179   1.474       .  S
C160        O640   1.273       .  A
C164        C166   1.477       .  S
C164        O401   1.265   1_554  A
C165        C166   1.405       .  A
C165        C170   1.409       .  A
C165       Br416   1.937       .  S
C166        C655   1.405       .  A
C167        C168   1.414       .  A
C167        C654   1.405   1_455  A
C167       Br174   1.931       .  S
C168        C657   1.425   1_455  A
C168       Br173   1.934       .  S
C169        C170   1.427       .  A
C169        C656   1.425       .  A
C170       Br415   1.939       .  S
Br171       C414   1.939       .  S
Br172       C409   1.937       .  S
C175        C180   1.400       .  A
C175        C420   1.429   1_554  A
C175       Br182   1.938       .  S
C176        C419   1.429       .  A
C176        C665   1.422       .  A
C177        C178   1.418       .  A
C177        C664   1.422   1_455  A
C177       Br184   1.929       .  S
C178        C667   1.407       .  A
C178       Br183   1.927       .  S
C179        C666   1.407       .  A
C179        C424   1.401       .  A
C180        C423   1.401   1_554  A
C180       Br181   1.940       .  S
C185        C186   1.410       .  A
C185        C190   1.405       .  A
C185       Br192   1.930       .  S
C186        C187   1.409       .  A
C187        C188   1.404       .  A
C187       Br194   1.930       .  S
C188        C189   1.409       .  A
C188       Br193   1.930       .  S
C189        C190   1.409       .  A
C190       Br191   1.930       .  S
C195        C196   1.407       .  A
C195        C200   1.408       .  A
C195       Br202   1.937       .  S
C196        C197   1.407       .  A
C197        C198   1.415       .  A
C197       Br204   1.930       .  S
C198        C199   1.423       .  A
C198       Br203   1.932       .  S
C199        C200   1.424       .  A
C200       Br201   1.937       .  S
C205        C206   1.429       .  A
C205        C210   1.414       .  A
C205       Br212   1.936       .  S
C206        C207   1.431       .  A
C207        C208   1.411       .  A
C207       Br214   1.939       .  S
C208        C209   1.404       .  A
C208       Br213   1.937       .  S
C209        C210   1.404       .  A
C210       Br211   1.933       .  S
C215        C216   1.408       .  A
C215        C220   1.404       .  A
C215       Br222   1.930       .  S
C216        C217   1.408       .  A
C217        C218   1.404       .  A
C217       Br224   1.929       .  S
C218        C219   1.407       .  A
C218       Br223   1.930       .  S
C219        C220   1.408       .  A
C220       Br221   1.930       .  S
C225        C226   1.411       .  A
C225        C230   1.403       .  A
C225       Br232   1.933       .  S
C226        C227   1.410       .  A
C227        C228   1.404       .  A
C227       Br234   1.933       .  S
C228        C229   1.410       .  A
C228       Br233   1.933       .  S
C229        C230   1.410       .  A
C230       Br231   1.933       .  S
C235        C236   1.408       .  A
C235        C240   1.404       .  A
C235       Br242   1.929       .  S
C236        C237   1.407       .  A
C237        C238   1.404       .  A
C237       Br244   1.928       .  S
C238        C239   1.407       .  A
C238       Br243   1.929       .  S
C239        C240   1.408       .  A
C240       Br241   1.929       .  S
C245        C246   1.385       .  A
C245        C250   1.383       .  A
C245        C480   1.471       .  S
C246        C247   1.410       .  A
C246        H251   1.085       .  S
C247        C248   1.412   1_565  A
C247        C316   1.474   1_565  S
C248        C249   1.412   1_545  A
C248        H252   1.083       .  S
C249        C250   1.404       .  A
C249        C380   1.471   1_565  S
C250        H253   1.080       .  S
C254        C255   1.390       .  A
C254        C259   1.392       .  A
C254        C483   1.471       .  S
C255        C256   1.401       .  A
C255        H260   1.085       .  S
C256        C257   1.416       .  A
C256        C340   1.474       .  S
C257        C258   1.416       .  A
C257        H261   1.083       .  S
C258        C259   1.403       .  A
C258        C403   1.478       .  S
C259        H262   1.082       .  S
C263        C264   1.385       .  A
C263        C268   1.386       .  A
C263        C473   1.473       .  S
C264        C265   1.406       .  A
C264        H269   1.085       .  S
C265        C266   1.412       .  A
C265        C339   1.472       .  S
C266        C267   1.412       .  A
C266        H270   1.083       .  S
C267        C268   1.407       .  A
C267        C407   1.473       .  S
C268        H271   1.085       .  S
C272        C273   1.391       .  A
C272        C277   1.393       .  A
C272        C470   1.474       .  S
C273        C274   1.401       .  A
C273        H278   1.085       .  S
C274        C275   1.415       .  A
C274        C382   1.474       .  S
C275        C276   1.415       .  A
C275        H279   1.083       .  S
C276        C277   1.403       .  A
C276        C318   1.475       .  S
C277        H280   1.085       .  S
C281        C282   1.390       .  A
C281        C286   1.391       .  A
C281        C463   1.471       .  S
C282        C283   1.401       .  A
C282        H287   1.084       .  S
C283        C284   1.415       .  A
C283        C319   1.473       .  S
C284        C285   1.415       .  A
C284        H288   1.083       .  S
C285        C286   1.404       .  A
C285        C383   1.475       .  S
C286        H289   1.085       .  S
C290        C291   1.386       .  A
C290        C295   1.385       .  A
C290        C460   1.472       .  S
C291        C292   1.409       .  A
C291        H296   1.084       .  S
C292        C293   1.412       .  A
C292        C344   1.475       .  S
C293        C294   1.412       .  A
C293        H297   1.083       .  S
C294        C295   1.407       .  A
C294        C406   1.472       .  S
C295        H298   1.085       .  S
Zn299       O303   1.979       .  S
Zn299       O304   2.074       .  S
Zn299       O308   2.002       .  S
Zn299       O315   2.045       .  S
Zn300       O303   1.894   1_565  S
Zn300       O305   1.967       .  S
Zn300       O307   1.921       .  S
Zn300       O311   1.934       .  S
Zn301       O303   1.995       .  S
Zn301       O306   2.064       .  S
Zn301       O309   2.071   1_545  S
Zn301       O312   2.058       .  S
Zn302       O303   1.967       .  S
Zn302       O310   2.003       .  S
Zn302       O313   2.049       .  S
Zn302       O314   2.019       .  S
O304        C316   1.276       .  A
O305        C317   1.264       .  A
O306        C318   1.279       .  A
O307        C316   1.264   1_565  A
O308        C318   1.275       .  A
O309        C317   1.277       .  A
O310        C319   1.275       .  A
O311        C320   1.264       .  A
O312        C319   1.279       .  A
O313        C320   1.272   1_545  A
O314        C321   1.273       .  A
O315        C321   1.276       .  A
C317        C453   1.478       .  S
C320        C347   1.469       .  S
C321        C443   1.503       .  S
Zn322       O326   1.894       .  S
Zn322       O327   1.934       .  S
Zn322       O331   1.970       .  S
Zn322       O338   1.932       .  S
Zn323       O326   1.972       .  S
Zn323       O328   2.005       .  S
Zn323       O330   2.057       .  S
Zn323       O334   2.023       .  S
Zn324       O326   1.997       .  S
Zn324       O329   2.072       .  S
Zn324       O332   2.057       .  S
Zn324       O335   2.064       .  S
Zn325       O326   1.976       .  S
Zn325       O333   2.001       .  S
Zn325       O336   2.039       .  S
Zn325       O337   2.073       .  S
O327        C339   1.265       .  A
O328        C340   1.276       .  A
O329        C341   1.277       .  A
O330        C339   1.272       .  A
O331        C341   1.266       .  A
O332        C340   1.279       .  A
O333        C342   1.274       .  A
O334        C343   1.272       .  A
O335        C342   1.279       .  A
O336        C343   1.274       .  A
O337        C344   1.276       .  A
O338        C344   1.265       .  A
C341        C440   1.481       .  S
C342        C356   1.475       .  S
C343        C450   1.513       .  S
C345        C346   1.386       .  A
C345        C350   1.387       .  A
C345        C430   1.475       .  S
C346        C347   1.407       .  A
C346        H351   1.085       .  S
C347        C348   1.411   1_565  A
C348        C349   1.408   1_545  A
C348        H352   1.083       .  S
C349        C350   1.409       .  A
C349        C384   1.471   1_565  S
C350        H353   1.085       .  S
C354        C355   1.393       .  A
C354        C359   1.393       .  A
C354        C433   1.475       .  S
C355        C356   1.403       .  A
C355        H360   1.085       .  S
C356        C357   1.414       .  A
C357        C358   1.414       .  A
C357        H361   1.083       .  S
C358        C359   1.403       .  A
C358        C405   1.474       .  S
C359        H362   1.085       .  S
Zn363       O368   2.050       .  S
Zn363       O379   2.018       .  S
Zn364       O369   1.950       .  S
Zn364       O371   1.942       .  S
Zn364       O863   1.911       .  S
Zn365       O367   2.005   1_556  S
Zn365       O370   2.058       .  S
Zn365       O373   2.087   1_545  S
Zn365       O864   2.074       .  S
Zn366       O611   1.970       .  S
Zn366       O377   2.077       .  S
Zn366       O378   2.039       .  S
O367       Zn610   1.970       .  S
O368        C380   1.271       .  A
O370        C382   1.279       .  A
O371        C380   1.265   1_565  A
O372        C382   1.275       .  A
O373        C381   1.278       .  A
O374        C383   1.274       .  A
O375       Zn852   1.911       .  S
O375        C384   1.261   1_565  A
O376       Zn853   2.074   1_455  S
O376        C383   1.281       .  A
O377        C384   1.276       .  A
O378        C873   1.275       .  A
O379        C385   1.272       .  A
C381        C420   1.503       .  S
C385        C413   1.506       .  S
C385        O866   1.275       .  A
Zn386       O391   2.066       .  S
Zn386       O883   2.056       .  S
Zn386       O402   2.068       .  S
Zn387       O390   1.973       .  S
Zn387       O392   2.018       .  S
Zn387       O398   2.063       .  S
Zn388       O878   1.980       .  S
Zn388       O396   2.024       .  S
Zn388       O399   2.059       .  S
Zn389       O390   1.894       .  S
Zn389       O885   1.935       .  S
Zn389       O400   1.934       .  S
Zn389       O401   1.967       .  S
O390       Zn876   1.980       .  S
O391        C403   1.279       .  A
O392        C404   1.275       .  A
O393        C405   1.275       .  A
O394        C403   1.275       .  A
O395       Zn874   2.056       .  S
O395        C405   1.279       .  A
O396        C892   1.273       .  A
O397       Zn877   1.935       .  S
O397        C406   1.265       .  A
O398        C407   1.274       .  A
O399        C406   1.274       .  A
O400        C407   1.265       .  A
O402        C408   1.277       .  A
C404        C423   1.474       .  S
C404        O884   1.273       .  A
C408        C410   1.477       .  S
C409        C410   1.405       .  A
C409        C414   1.409       .  A
C410        C899   1.405       .  A
C411        C898   1.405   1_455  A
C411        C412   1.414       .  A
C411       Br418   1.931       .  S
C412        C901   1.425   1_455  A
C412       Br417   1.934       .  S
C413        C900   1.425       .  A
C413        C414   1.427       .  A
C419        C424   1.400       .  A
C419       Br426   1.938       .  S
C420        C909   1.422       .  A
C421        C908   1.422   1_455  A
C421        C422   1.418       .  A
C421       Br428   1.929       .  S
C422        C911   1.407       .  A
C422       Br427   1.927       .  S
C423        C910   1.407       .  A
C424       Br425   1.940       .  S
C429        C430   1.410       .  A
C429        C434   1.405       .  A
C429       Br436   1.930       .  S
C430        C431   1.409       .  A
C431        C432   1.404       .  A
C431       Br438   1.930       .  S
C432        C433   1.409       .  A
C432       Br437   1.930       .  S
C433        C434   1.409       .  A
C434       Br435   1.930       .  S
C439        C440   1.407       .  A
C439        C444   1.408       .  A
C439       Br446   1.937       .  S
C440        C441   1.407       .  A
C441        C442   1.415       .  A
C441       Br448   1.930       .  S
C442        C443   1.423       .  A
C442       Br447   1.932       .  S
C443        C444   1.424       .  A
C444       Br445   1.937       .  S
C449        C450   1.429       .  A
C449        C454   1.414       .  A
C449       Br456   1.936       .  S
C450        C451   1.431       .  A
C451        C452   1.411       .  A
C451       Br458   1.939       .  S
C452        C453   1.404       .  A
C452       Br457   1.937       .  S
C453        C454   1.404       .  A
C454       Br455   1.933       .  S
C459        C460   1.408       .  A
C459        C464   1.404       .  A
C459       Br466   1.930       .  S
C460        C461   1.408       .  A
C461        C462   1.404       .  A
C461       Br468   1.929       .  S
C462        C463   1.407       .  A
C462       Br467   1.930       .  S
C463        C464   1.408       .  A
C464       Br465   1.930       .  S
C469        C470   1.411       .  A
C469        C474   1.403       .  A
C469       Br476   1.933       .  S
C470        C471   1.410       .  A
C471        C472   1.404       .  A
C471       Br478   1.933       .  S
C472        C473   1.410       .  A
C472       Br477   1.933       .  S
C473        C474   1.410       .  A
C474       Br475   1.933       .  S
C479        C480   1.408       .  A
C479        C484   1.404       .  A
C479       Br486   1.929       .  S
C480        C481   1.407       .  A
C481        C482   1.404       .  A
C481       Br488   1.928       .  S
C482        C483   1.407       .  A
C482       Br487   1.929       .  S
C483        C484   1.408       .  A
C484       Br485   1.929       .  S
C489        C490   1.385       .  A
C489        C494   1.383       .  A
C489        C724   1.471       .  S
C490        C491   1.410       .  A
C490        H495   1.085       .  S
C491        C492   1.412   1_565  A
C491        C560   1.474   1_565  S
C492        C493   1.412   1_545  A
C492        H496   1.083       .  S
C493        C494   1.404       .  A
C493        C624   1.471   1_565  S
C494        H497   1.080       .  S
C498        C499   1.390       .  A
C498        C503   1.392       .  A
C498        C727   1.471       .  S
C499        C500   1.401       .  A
C499        H504   1.085       .  S
C500        C501   1.416       .  A
C500        C584   1.474       .  S
C501        C502   1.416       .  A
C501        H505   1.083       .  S
C502        C503   1.403       .  A
C502        C647   1.478       .  S
C503        H506   1.082       .  S
C507        C508   1.385       .  A
C507        C512   1.386       .  A
C507        C717   1.473       .  S
C508        C509   1.406       .  A
C508        H513   1.085       .  S
C509        C510   1.412       .  A
C509        C583   1.472       .  S
C510        C511   1.412       .  A
C510        H514   1.083       .  S
C511        C512   1.407       .  A
C511        C651   1.473       .  S
C512        H515   1.085       .  S
C516        C517   1.391       .  A
C516        C521   1.393       .  A
C516        C714   1.474       .  S
C517        C518   1.401       .  A
C517        H522   1.085       .  S
C518        C519   1.415       .  A
C518        C626   1.474       .  S
C519        C520   1.415       .  A
C519        H523   1.083       .  S
C520        C521   1.403       .  A
C520        C562   1.475       .  S
C521        H524   1.085       .  S
C525        C526   1.390       .  A
C525        C530   1.391       .  A
C525        C707   1.471       .  S
C526        C527   1.401       .  A
C526        H531   1.084       .  S
C527        C528   1.415       .  A
C527        C563   1.473       .  S
C528        C529   1.415       .  A
C528        H532   1.083       .  S
C529        C530   1.404       .  A
C529        C627   1.475       .  S
C530        H533   1.085       .  S
C534        C535   1.386       .  A
C534        C539   1.385       .  A
C534        C704   1.472       .  S
C535        C536   1.409       .  A
C535        H540   1.084       .  S
C536        C537   1.412       .  A
C536        C588   1.475       .  S
C537        C538   1.412       .  A
C537        H541   1.083       .  S
C538        C539   1.407       .  A
C538        C650   1.472       .  S
C539        H542   1.085       .  S
Zn543       O547   1.979       .  S
Zn543       O548   2.074       .  S
Zn543       O552   2.002       .  S
Zn543       O559   2.045       .  S
Zn544       O547   1.894   1_565  S
Zn544       O549   1.967       .  S
Zn544       O551   1.921       .  S
Zn544       O555   1.934       .  S
Zn545       O547   1.995       .  S
Zn545       O550   2.064       .  S
Zn545       O553   2.071   1_545  S
Zn545       O556   2.058       .  S
Zn546       O547   1.967       .  S
Zn546       O554   2.003       .  S
Zn546       O557   2.049       .  S
Zn546       O558   2.019       .  S
O548        C560   1.276       .  A
O549        C561   1.264       .  A
O550        C562   1.279       .  A
O551        C560   1.264   1_565  A
O552        C562   1.275       .  A
O553        C561   1.277       .  A
O554        C563   1.275       .  A
O555        C564   1.264       .  A
O556        C563   1.279       .  A
O557        C564   1.272   1_545  A
O558        C565   1.273       .  A
O559        C565   1.276       .  A
C561        C697   1.478       .  S
C564        C591   1.469       .  S
C565        C687   1.503       .  S
Zn566       O570   1.894       .  S
Zn566       O571   1.934       .  S
Zn566       O575   1.970       .  S
Zn566       O582   1.932       .  S
Zn567       O570   1.972       .  S
Zn567       O572   2.005       .  S
Zn567       O574   2.057       .  S
Zn567       O578   2.023       .  S
Zn568       O570   1.997       .  S
Zn568       O573   2.072       .  S
Zn568       O576   2.057       .  S
Zn568       O579   2.064       .  S
Zn569       O570   1.976       .  S
Zn569       O577   2.001       .  S
Zn569       O580   2.039       .  S
Zn569       O581   2.073       .  S
O571        C583   1.265       .  A
O572        C584   1.276       .  A
O573        C585   1.277       .  A
O574        C583   1.272       .  A
O575        C585   1.266       .  A
O576        C584   1.279       .  A
O577        C586   1.274       .  A
O578        C587   1.272       .  A
O579        C586   1.279       .  A
O580        C587   1.274       .  A
O581        C588   1.276       .  A
O582        C588   1.265       .  A
C585        C684   1.481       .  S
C586        C600   1.475       .  S
C587        C694   1.513       .  S
C589        C590   1.386       .  A
C589        C594   1.387       .  A
C589        C674   1.475       .  S
C590        C591   1.407       .  A
C590        H595   1.085       .  S
C591        C592   1.411   1_565  A
C592        C593   1.408   1_545  A
C592        H596   1.083       .  S
C593        C594   1.409       .  A
C593        C628   1.471   1_565  S
C594        H597   1.085       .  S
C598        C599   1.393       .  A
C598        C603   1.393       .  A
C598        C677   1.475       .  S
C599        C600   1.403       .  A
C599        H604   1.085       .  S
C600        C601   1.414       .  A
C601        C602   1.414       .  A
C601        H605   1.083       .  S
C602        C603   1.403       .  A
C602        C649   1.474       .  S
C603        H606   1.085       .  S
Zn607       O855   1.966   1_655  S
Zn607       O612   2.050       .  S
Zn607       O860   2.000   1_554  S
Zn607       O623   2.018       .  S
Zn608       O855   1.877   1_565  S
Zn608       O613   1.950       .  S
Zn608       O615   1.942   1_455  S
Zn609       O611   2.005   1_655  S
Zn609       O614   2.058       .  S
Zn609       O617   2.087   1_545  S
Zn610       O862   1.990   1_554  S
Zn610       O621   2.077       .  S
Zn610       O622   2.039       .  S
O611       Zn851   1.966   1_455  S
O611       Zn852   1.877   1_545  S
O612        C624   1.271       .  A
O613        C869   1.261   1_554  A
O614        C626   1.279       .  A
O615        C624   1.265   1_565  A
O616       Zn851   2.000       .  S
O616        C626   1.275       .  A
O617        C625   1.278   1_655  A
O618       Zn854   1.990       .  S
O618        C627   1.274       .  A
O619        C628   1.261   1_565  A
O620        C627   1.281       .  A
O621        C628   1.276       .  A
O623        C629   1.272   1_655  A
C625        C664   1.503   1_455  S
C625        O857   1.261       .  A
C629        C657   1.506   1_455  S
Zn630       O878   1.997   1_554  S
Zn630       O635   2.066   1_455  S
Zn630       O646   2.068       .  S
Zn631       O634   1.973   1_655  S
Zn631       O636   2.018       .  S
Zn631       O882   2.010       .  S
Zn631       O642   2.063       .  S
Zn632       O881   2.008       .  S
Zn632       O640   2.024       .  S
Zn632       O643   2.059       .  S
Zn633       O634   1.894       .  S
Zn633       O644   1.934   1_455  S
Zn633       O645   1.967       .  S
O634       Zn874   1.997       .  S
O635        C647   1.279       .  A
O636        C648   1.275   1_655  A
O637       Zn876   2.008   1_554  S
O637        C649   1.275       .  A
O638       Zn875   2.010   1_554  S
O638        C647   1.275       .  A
O639        C649   1.279       .  A
O641        C650   1.265       .  A
O642        C651   1.274       .  A
O643        C650   1.274       .  A
O644        C651   1.265       .  A
O645        C896   1.265       .  A
O646        C652   1.277       .  A
C648        C667   1.474       .  S
C652        C654   1.477   1_455  S
C652        O889   1.265   1_554  A
C653        C654   1.405       .  A
C653        C658   1.409       .  A
C653       Br904   1.937       .  S
C655        C656   1.414       .  A
C655       Br662   1.931       .  S
C656       Br661   1.934       .  S
C657        C658   1.427       .  A
C658       Br903   1.939       .  S
Br659       C902   1.939       .  S
Br660       C897   1.937       .  S
C663        C908   1.429   1_554  A
C663        C668   1.400       .  A
C663       Br670   1.938       .  S
C664        C907   1.429       .  A
C665        C666   1.418       .  A
C665       Br672   1.929       .  S
C666       Br671   1.927       .  S
C667        C912   1.401   1_455  A
C668        C911   1.401   1_654  A
C668       Br669   1.940       .  S
C673        C674   1.410       .  A
C673        C678   1.405       .  A
C673       Br680   1.930       .  S
C674        C675   1.409       .  A
C675        C676   1.404       .  A
C675       Br682   1.930       .  S
C676        C677   1.409       .  A
C676       Br681   1.930       .  S
C677        C678   1.409       .  A
C678       Br679   1.930       .  S
C683        C684   1.407       .  A
C683        C688   1.408       .  A
C683       Br690   1.937       .  S
C684        C685   1.407       .  A
C685        C686   1.415       .  A
C685       Br692   1.930       .  S
C686        C687   1.423       .  A
C686       Br691   1.932       .  S
C687        C688   1.424       .  A
C688       Br689   1.937       .  S
C693        C694   1.429       .  A
C693        C698   1.414       .  A
C693       Br700   1.936       .  S
C694        C695   1.431       .  A
C695        C696   1.411       .  A
C695       Br702   1.939       .  S
C696        C697   1.404       .  A
C696       Br701   1.937       .  S
C697        C698   1.404       .  A
C698       Br699   1.933       .  S
C703        C704   1.408       .  A
C703        C708   1.404       .  A
C703       Br710   1.930       .  S
C704        C705   1.408       .  A
C705        C706   1.404       .  A
C705       Br712   1.929       .  S
C706        C707   1.407       .  A
C706       Br711   1.930       .  S
C707        C708   1.408       .  A
C708       Br709   1.930       .  S
C713        C714   1.411       .  A
C713        C718   1.403       .  A
C713       Br720   1.933       .  S
C714        C715   1.410       .  A
C715        C716   1.404       .  A
C715       Br722   1.933       .  S
C716        C717   1.410       .  A
C716       Br721   1.933       .  S
C717        C718   1.410       .  A
C718       Br719   1.933       .  S
C723        C724   1.408       .  A
C723        C728   1.404       .  A
C723       Br730   1.929       .  S
C724        C725   1.407       .  A
C725        C726   1.404       .  A
C725       Br732   1.928       .  S
C726        C727   1.407       .  A
C726       Br731   1.929       .  S
C727        C728   1.408       .  A
C728       Br729   1.929       .  S
C733        C734   1.385       .  A
C733        C738   1.383       .  A
C733        C968   1.471       .  S
C734        C735   1.410       .  A
C734        H739   1.085       .  S
C735        C736   1.412   1_565  A
C735        C804   1.474   1_565  S
C736        C737   1.412   1_545  A
C736        H740   1.083       .  S
C737        C738   1.404       .  A
C737        C868   1.471   1_565  S
C738        H741   1.080       .  S
C742        C743   1.390       .  A
C742        C747   1.392       .  A
C742        C971   1.471       .  S
C743        C744   1.401       .  A
C743        H748   1.085       .  S
C744        C745   1.416       .  A
C744        C828   1.474       .  S
C745        C746   1.416       .  A
C745        H749   1.083       .  S
C746        C747   1.403       .  A
C746        C891   1.478       .  S
C747        H750   1.082       .  S
C751        C752   1.385       .  A
C751        C756   1.386       .  A
C751        C961   1.473       .  S
C752        C753   1.406       .  A
C752        H757   1.085       .  S
C753        C754   1.412       .  A
C753        C827   1.472       .  S
C754        C755   1.412       .  A
C754        H758   1.083       .  S
C755        C756   1.407       .  A
C755        C895   1.473       .  S
C756        H759   1.085       .  S
C760        C761   1.391       .  A
C760        C765   1.393       .  A
C760        C958   1.474       .  S
C761        C762   1.401       .  A
C761        H766   1.085       .  S
C762        C763   1.415       .  A
C762        C870   1.474       .  S
C763        C764   1.415       .  A
C763        H767   1.083       .  S
C764        C765   1.403       .  A
C764        C806   1.475       .  S
C765        H768   1.085       .  S
C769        C770   1.390       .  A
C769        C774   1.391       .  A
C769        C951   1.471       .  S
C770        C771   1.401       .  A
C770        H775   1.084       .  S
C771        C772   1.415       .  A
C771        C807   1.473       .  S
C772        C773   1.415       .  A
C772        H776   1.083       .  S
C773        C774   1.404       .  A
C773        C871   1.475       .  S
C774        H777   1.085       .  S
C778        C779   1.386       .  A
C778        C783   1.385       .  A
C778        C948   1.472       .  S
C779        C780   1.409       .  A
C779        H784   1.084       .  S
C780        C781   1.412       .  A
C780        C832   1.475       .  S
C781        C782   1.412       .  A
C781        H785   1.083       .  S
C782        C783   1.407       .  A
C782        C894   1.472       .  S
C783        H786   1.085       .  S
Zn787       O791   1.979       .  S
Zn787       O792   2.074       .  S
Zn787       O796   2.002       .  S
Zn787       O803   2.045       .  S
Zn788       O791   1.894   1_565  S
Zn788       O793   1.967       .  S
Zn788       O795   1.921       .  S
Zn788       O799   1.934       .  S
Zn789       O791   1.995       .  S
Zn789       O794   2.064       .  S
Zn789       O797   2.071   1_545  S
Zn789       O800   2.058       .  S
Zn790       O791   1.967       .  S
Zn790       O798   2.003       .  S
Zn790       O801   2.049       .  S
Zn790       O802   2.019       .  S
O792        C804   1.276       .  A
O793        C805   1.264       .  A
O794        C806   1.279       .  A
O795        C804   1.264   1_565  A
O796        C806   1.275       .  A
O797        C805   1.277       .  A
O798        C807   1.275       .  A
O799        C808   1.264       .  A
O800        C807   1.279       .  A
O801        C808   1.272   1_545  A
O802        C809   1.273       .  A
O803        C809   1.276       .  A
C805        C941   1.478       .  S
C808        C835   1.469       .  S
C809        C931   1.503       .  S
Zn810       O814   1.894       .  S
Zn810       O815   1.934       .  S
Zn810       O819   1.970       .  S
Zn810       O826   1.932       .  S
Zn811       O814   1.972       .  S
Zn811       O816   2.005       .  S
Zn811       O818   2.057       .  S
Zn811       O822   2.023       .  S
Zn812       O814   1.997       .  S
Zn812       O817   2.072       .  S
Zn812       O820   2.057       .  S
Zn812       O823   2.064       .  S
Zn813       O814   1.976       .  S
Zn813       O821   2.001       .  S
Zn813       O824   2.039       .  S
Zn813       O825   2.073       .  S
O815        C827   1.265       .  A
O816        C828   1.276       .  A
O817        C829   1.277       .  A
O818        C827   1.272       .  A
O819        C829   1.266       .  A
O820        C828   1.279       .  A
O821        C830   1.274       .  A
O822        C831   1.272       .  A
O823        C830   1.279       .  A
O824        C831   1.274       .  A
O825        C832   1.276       .  A
O826        C832   1.265       .  A
C829        C928   1.481       .  S
C830        C844   1.475       .  S
C831        C938   1.513       .  S
C833        C834   1.386       .  A
C833        C838   1.387       .  A
C833        C918   1.475       .  S
C834        C835   1.407       .  A
C834        H839   1.085       .  S
C835        C836   1.411   1_565  A
C836        C837   1.408   1_545  A
C836        H840   1.083       .  S
C837        C838   1.409       .  A
C837        C872   1.471   1_565  S
C838        H841   1.085       .  S
C842        C843   1.393       .  A
C842        C847   1.393       .  A
C842        C921   1.475       .  S
C843        C844   1.403       .  A
C843        H848   1.085       .  S
C844        C845   1.414       .  A
C845        C846   1.414       .  A
C845        H849   1.083       .  S
C846        C847   1.403       .  A
C846        C893   1.474       .  S
C847        H850   1.085       .  S
Zn851       O856   2.050       .  S
Zn851       O867   2.018       .  S
Zn852       O857   1.950       .  S
Zn852       O859   1.942   1_455  S
Zn853       O855   2.005   1_656  S
Zn853       O858   2.058       .  S
Zn853       O861   2.087   1_545  S
Zn854       O865   2.077       .  S
Zn854       O866   2.039       .  S
O856        C868   1.271       .  A
O858        C870   1.279       .  A
O859        C868   1.265   1_565  A
O860        C870   1.275       .  A
O861        C869   1.278   1_655  A
O862        C871   1.274       .  A
O863        C872   1.261   1_565  A
O864        C871   1.281       .  A
O865        C872   1.276       .  A
O867        C873   1.272   1_655  A
C869        C908   1.503   1_455  S
C873        C901   1.506   1_455  S
Zn874       O879   2.066   1_455  S
Zn874       O890   2.068       .  S
Zn875       O878   1.973   1_655  S
Zn875       O880   2.018       .  S
Zn875       O886   2.063       .  S
Zn876       O884   2.024       .  S
Zn876       O887   2.059       .  S
Zn877       O878   1.894       .  S
Zn877       O888   1.934   1_455  S
Zn877       O889   1.967       .  S
O879        C891   1.279       .  A
O880        C892   1.275   1_655  A
O881        C893   1.275       .  A
O882        C891   1.275       .  A
O883        C893   1.279       .  A
O885        C894   1.265       .  A
O886        C895   1.274       .  A
O887        C894   1.274       .  A
O888        C895   1.265       .  A
O890        C896   1.277       .  A
C892        C911   1.474       .  S
C896        C898   1.477   1_455  S
C897        C898   1.405       .  A
C897        C902   1.409       .  A
C899        C900   1.414       .  A
C899       Br906   1.931       .  S
C900       Br905   1.934       .  S
C901        C902   1.427       .  A
C907        C912   1.400       .  A
C907       Br914   1.938       .  S
C909        C910   1.418       .  A
C909       Br916   1.929       .  S
C910       Br915   1.927       .  S
C912       Br913   1.940       .  S
C917        C918   1.410       .  A
C917        C922   1.405       .  A
C917       Br924   1.930       .  S
C918        C919   1.409       .  A
C919        C920   1.404       .  A
C919       Br926   1.930       .  S
C920        C921   1.409       .  A
C920       Br925   1.930       .  S
C921        C922   1.409       .  A
C922       Br923   1.930       .  S
C927        C928   1.407       .  A
C927        C932   1.408       .  A
C927       Br934   1.937       .  S
C928        C929   1.407       .  A
C929        C930   1.415       .  A
C929       Br936   1.930       .  S
C930        C931   1.423       .  A
C930       Br935   1.932       .  S
C931        C932   1.424       .  A
C932       Br933   1.937       .  S
C937        C938   1.429       .  A
C937        C942   1.414       .  A
C937       Br944   1.936       .  S
C938        C939   1.431       .  A
C939        C940   1.411       .  A
C939       Br946   1.939       .  S
C940        C941   1.404       .  A
C940       Br945   1.937       .  S
C941        C942   1.404       .  A
C942       Br943   1.933       .  S
C947        C948   1.408       .  A
C947        C952   1.404       .  A
C947       Br954   1.930       .  S
C948        C949   1.408       .  A
C949        C950   1.404       .  A
C949       Br956   1.929       .  S
C950        C951   1.407       .  A
C950       Br955   1.930       .  S
C951        C952   1.408       .  A
C952       Br953   1.930       .  S
C957        C958   1.411       .  A
C957        C962   1.403       .  A
C957       Br964   1.933       .  S
C958        C959   1.410       .  A
C959        C960   1.404       .  A
C959       Br966   1.933       .  S
C960        C961   1.410       .  A
C960       Br965   1.933       .  S
C961        C962   1.410       .  A
C962       Br963   1.933       .  S
C967        C968   1.408       .  A
C967        C972   1.404       .  A
C967       Br974   1.929       .  S
C968        C969   1.407       .  A
C969        C970   1.404       .  A
C969       Br976   1.928       .  S
C970        C971   1.407       .  A
C970       Br975   1.929       .  S
C971        C972   1.408       .  A
C972       Br973   1.929       .  S
