geometry optimzed in LAMMPS
_audit_creation_date              2020-11-30 
_audit_creation_method            'lammps2cif' 
_symmetry_space_group_name_H-M    'P1' 
_symmetry_Int_Tables_number       1 
_symmetry_cell_setting            triclinic 
loop_ 
_symmetry_equiv_pos_as_xyz 
  x,y,z 
_cell_length_a                    33.41003126 
_cell_length_b                    33.243458310064845 
_cell_length_c                    33.47546988401042 
_cell_angle_alpha                 90.76256525207707 
_cell_angle_beta                  89.26925674567804 
_cell_angle_gamma                 90.46918414632562 
loop_ 
_atom_site_label 
_atom_site_type_symbol 
_atom_site_fract_x 
_atom_site_fract_y 
_atom_site_fract_z 
_atom_site_charge 
O1          O  0.84669602  0.89137144  0.59207789    -0.81000
C2          C  0.90334816  0.80787061  0.72743676     0.98400
O3          O  0.90877410  0.79692379  0.69125145    -0.70100
O4          O  0.84265866  0.79065428  0.65226900    -0.73700
Al5        Al  0.88917911  0.81918786  0.64108013     1.49000
C6          C  0.80856878  0.79867987  0.63988411     0.93600
O7          O  0.79900898  0.88114994  0.69317166    -0.79900
O8          O  0.90040081  0.93887752  0.67508662    -0.73500
Al9        Al  0.82502604  0.88531963  0.64358615     1.90100
O10         O  0.84696943  0.90581746  0.73076363    -0.72500
O11         O  0.94873149  0.87657434  0.68276955    -0.72400
O12         O  0.89340825  0.84347212  0.73551923    -0.78000
O13         O  0.93837734  0.84208128  0.62743896    -0.76200
O14         O  0.87009539  0.86468877  0.66237815    -1.12400
O15         O  0.87301424  0.83119593  0.58638969    -0.71600
C16         C  0.86006761  0.86314443  0.57062907     0.99200
C17         C  0.81089655  0.89458859  0.72631469     0.95600
Al18       Al  0.89541031  0.88924811  0.70251219     1.55600
O19         O  0.79978324  0.83412365  0.62994461    -0.76200
C20         C  0.96161473  0.86017530  0.65067940     0.99700
C21         C  0.87211129  0.95856258  0.66056343     0.94600
O22         O  0.83928938  0.94123645  0.65245325    -0.81500
O23         O  0.69787077  0.86402678  0.93201383    -0.81000
C24         C  0.62568910  0.78385980  0.80660730     0.98400
O25         O  0.63512254  0.77706575  0.84222683    -0.70100
O26         O  0.68572676  0.78642521  0.89984700    -0.73700
Al27       Al  0.63679483  0.81172877  0.88772959     1.49000
C28         C  0.72049864  0.79074682  0.88560197     0.93600
O29         O  0.72686283  0.88762644  0.82544095    -0.79900
O30         O  0.64698364  0.92723470  0.83146129    -0.73500
Al31       Al  0.70585319  0.87285189  0.87649146     1.90100
O32         O  0.68120662  0.86674365  0.78408522    -0.72500
O33         O  0.58448656  0.87941282  0.84278149    -0.72400
O34         O  0.61989409  0.81954849  0.79517060    -0.78000
O35         O  0.58311143  0.82718349  0.88167442    -0.76200
O36         O  0.65891605  0.85221388  0.86034592    -1.12400
O37         O  0.63630256  0.84157661  0.93690160    -0.71600
C38         C  0.66725596  0.85639796  0.95283615     0.99200
C39         C  0.71615672  0.87898797  0.79054024     0.95600
Al40       Al  0.63514395  0.87169036  0.81721551     1.55600
O41         O  0.73154096  0.82307076  0.86928035    -0.76200
C42         C  0.56567908  0.85587556  0.86555400     0.99700
C43         C  0.66395121  0.94407513  0.86120642     0.94600
O44         O  0.68429355  0.92416594  0.88524712    -0.81500
O45         O  0.83585228  0.63027387  0.92360622    -0.81000
C46         C  0.90538533  0.71051903  0.79088370     0.98400
O47         O  0.91134770  0.72054197  0.82725573    -0.70100
O48         O  0.84915663  0.73213313  0.87130271    -0.73700
Al49       Al  0.89174918  0.69744833  0.87788149     1.49000
C50         C  0.81300013  0.72641909  0.87896930     0.93600
O51         O  0.79605805  0.64781527  0.82074784    -0.79900
O52         O  0.88909173  0.57890841  0.84124069    -0.73500
Al53       Al  0.81873669  0.63988914  0.87139597     1.90100
O54         O  0.84245490  0.61672222  0.78551616    -0.72500
O55         O  0.94444767  0.63648545  0.83126231    -0.72400
O56         O  0.89417344  0.67532205  0.78194199    -0.78000
O57         O  0.93869501  0.66954540  0.88778499    -0.76200
O58         O  0.86726808  0.65551338  0.85453940    -1.12400
O59         O  0.87581101  0.68240576  0.93265676    -0.71600
C60         C  0.85613005  0.65253213  0.94645474     0.99200
C61         C  0.80805686  0.63197642  0.78840544     0.95600
Al62       Al  0.89073959  0.62897694  0.81376339     1.55600
O63         O  0.79948299  0.69169785  0.88556088    -0.76200
C64         C  0.95972285  0.65144862  0.86237562     0.99700
C65         C  0.85708510  0.56321854  0.85462400     0.94600
O66         O  0.82650866  0.58422979  0.86142185    -0.81500
O67         O  0.69871849  0.63559520  0.58324483    -0.81000
C68         C  0.62114811  0.71843334  0.70982288     0.98400
O69         O  0.61635772  0.72524020  0.67297708    -0.70100
O70         O  0.67879936  0.73717385  0.62875910    -0.73700
Al71       Al  0.63668233  0.69977155  0.62465287     1.49000
C72         C  0.71583846  0.73272185  0.62694028     0.93600
O73         O  0.73132180  0.65396211  0.68896525    -0.79900
O74         O  0.63967945  0.58371544  0.66340443    -0.73500
Al75       Al  0.71143507  0.64578596  0.63695102     1.90100
O76         O  0.68264962  0.62429008  0.72166200    -0.72500
O77         O  0.58258203  0.64003345  0.67208084    -0.72400
O78         O  0.63164923  0.68398318  0.72144642    -0.78000
O79         O  0.58967843  0.67031079  0.61528389    -0.76200
O80         O  0.66145281  0.66039248  0.65062686    -1.12400
O81         O  0.65287485  0.68106515  0.57249254    -0.71600
C82         C  0.67555901  0.65315639  0.56007013     0.99200
C83         C  0.71772579  0.63826017  0.72031941     0.95600
Al84       Al  0.63626604  0.63509817  0.69086212     1.55600
O85         O  0.73086550  0.69816050  0.62612923    -0.76200
C86         C  0.56796314  0.65277460  0.64026760     0.99700
C87         C  0.67192966  0.56830629  0.64991366     0.94600
O88         O  0.70289835  0.58968377  0.64488455    -0.81500
O89         O  0.88736123  0.18349619  0.56472470    -0.81000
C90         C  0.79035684  0.13264304  0.69518559     0.98400
O91         O  0.78406076  0.12650650  0.65864362    -0.70100
O92         O  0.78030167  0.18859338  0.61363938    -0.73700
Al93       Al  0.81122640  0.14033257  0.61075527     1.49000
C94         C  0.79031918  0.22294903  0.60147581     0.93600
O95         O  0.86208550  0.23820205  0.65963142    -0.79900
O96         O  0.92796150  0.14042606  0.65416307    -0.73500
Al97       Al  0.87394860  0.20880217  0.61326960     1.90100
O98         O  0.88472437  0.19490687  0.70297405    -0.72500
O99         O  0.86800642  0.08778310  0.66273730    -0.72400
O100        O  0.82474707  0.14288640  0.70726599    -0.78000
O101        O  0.83511780  0.08829726  0.60643568    -0.76200
O102        O  0.85333021  0.16351667  0.63399846    -1.12400
O103        O  0.83051551  0.15025386  0.55742185    -0.71600
C104        C  0.86288951  0.16462917  0.54311485     0.99200
C105        C  0.87258271  0.22977705  0.69440187     0.95600
Al106      Al  0.87474667  0.14313621  0.67798679     1.55600
O107        O  0.82603681  0.22996871  0.59179513    -0.76200
C108        C  0.85326667  0.06931895  0.63309169     0.99700
C109        C  0.94628309  0.16986327  0.63854969     0.94600
O110        O  0.92741368  0.20064817  0.62888043    -0.81500
O111        O  0.85999071  0.33073371  0.92942662    -0.81000
C112        C  0.78964450  0.39109498  0.79223023     0.98400
O113        O  0.78060158  0.38502936  0.82812460    -0.70100
O114        O  0.78102866  0.33986592  0.89051150    -0.73700
Al115      Al  0.81200746  0.38611172  0.87441543     1.49000
C116        C  0.78504983  0.30258723  0.88382347     0.93600
O117        O  0.88301004  0.28398432  0.82798957    -0.79900
O118        O  0.92851826  0.35826582  0.81991027    -0.73500
Al119      Al  0.86965520  0.31323952  0.87572611     1.90100
O120        O  0.86427176  0.32389892  0.78051241    -0.72500
O121        O  0.88807636  0.42529015  0.82511701    -0.72400
O122        O  0.82595344  0.39177170  0.78110360    -0.78000
O123        O  0.83471029  0.43755629  0.86204854    -0.76200
O124        O  0.85222240  0.35789278  0.85214253    -1.12400
O125        O  0.83636678  0.39152275  0.92511022    -0.71600
C126        C  0.84888070  0.36314219  0.94584946     0.99200
C127        C  0.87464531  0.28974341  0.79203109     0.95600
Al128      Al  0.87473428  0.37345238  0.80588064     1.55600
O129        O  0.81853826  0.28831221  0.87323979    -0.76200
C130        C  0.86643523  0.44940658  0.84464309     0.99700
C131        C  0.94463927  0.34591083  0.85152761     0.94600
O132        O  0.92324044  0.33313414  0.88017988    -0.81500
O133        O  0.62210370  0.17312542  0.91830898    -0.81000
C134        C  0.72147796  0.12443190  0.78821969     0.98400
O135        O  0.72418589  0.11194131  0.82362800    -0.70100
O136        O  0.72672701  0.17111303  0.87400500    -0.73700
Al137      Al  0.69413414  0.12497782  0.87161863     1.49000
C138        C  0.71886232  0.20740992  0.88094373     0.93600
O139        O  0.64054282  0.22521374  0.81969349    -0.79900
O140        O  0.58468362  0.12226189  0.82035267    -0.73500
Al141      Al  0.63296241  0.19527938  0.86711517     1.90100
O142        O  0.62235699  0.17913469  0.77666140    -0.72500
O143        O  0.64699528  0.07539201  0.81019448    -0.72400
O144        O  0.68848547  0.13702891  0.77532800    -0.78000
O145        O  0.66664487  0.07436026  0.87211014    -0.76200
O146        O  0.65466526  0.15023701  0.84662316    -1.12400
O147        O  0.67371276  0.13378526  0.92471130    -0.71600
C148        C  0.64377162  0.15161355  0.93969768     0.99200
C149        C  0.62938945  0.21520606  0.78525105     0.95600
Al150      Al  0.63727955  0.13021568  0.79997130     1.55600
O151        O  0.68301791  0.21922831  0.88381994    -0.76200
C152        C  0.65382539  0.05632455  0.84140156     0.99700
C153        C  0.56317972  0.14868808  0.83732637     0.94600
O154        O  0.57872684  0.17994566  0.85323469    -0.81500
O155        O  0.62529926  0.32350232  0.58325898    -0.81000
C156        C  0.72412462  0.39363341  0.69781579     0.98400
O157        O  0.72733826  0.37855413  0.66331655    -0.70100
O158        O  0.70899844  0.32435841  0.60908486    -0.73700
Al159      Al  0.69003406  0.37857259  0.62093172     1.49000
C160        C  0.69914743  0.29021390  0.62299377     0.93600
O161        O  0.61131789  0.30244902  0.69440532    -0.79900
O162        O  0.57963556  0.38041921  0.69468790    -0.73500
Al163      Al  0.62110012  0.31869901  0.64011047     1.90100
O164        O  0.64558509  0.34621620  0.72983252    -0.72500
O165        O  0.62668515  0.43713867  0.66883843    -0.72400
O166        O  0.69064963  0.40644774  0.71029325    -0.78000
O167        O  0.67885553  0.43636926  0.62803632    -0.76200
O168        O  0.64939309  0.36262751  0.65232501    -1.12400
O169        O  0.65906904  0.37912525  0.57274480    -0.71600
C170        C  0.63894369  0.34950603  0.55951723     0.99200
C171        C  0.62919059  0.31235140  0.72622059     0.95600
Al172      Al  0.63674734  0.39029170  0.69689754     1.55600
O173        O  0.66629153  0.28527904  0.64116799    -0.76200
C174        C  0.65033480  0.45506575  0.64566247     0.99700
C175        C  0.55777065  0.36820784  0.66638175     0.94600
O176        O  0.57264150  0.34794564  0.63776095    -0.81500
O177        O  0.18108312  0.93972038  0.62381001    -0.81000
C178        C  0.13942236  0.79184568  0.69811260     0.98400
O179        O  0.13570226  0.82677080  0.71278733    -0.70100
O180        O  0.20052336  0.86952628  0.71540391    -0.73700
Al181      Al  0.15019033  0.87919712  0.69416626     1.49000
C182        C  0.23230016  0.88698140  0.70483165     0.93600
O183        O  0.23760071  0.84087494  0.62047950    -0.79900
O184        O  0.13213707  0.85387029  0.57221738    -0.73500
Al185      Al  0.20771158  0.88912367  0.62246992     1.90100
O186        O  0.18967827  0.80038710  0.59888784    -0.72500
O187        O  0.08776587  0.84029773  0.63657663    -0.72400
O188        O  0.14568684  0.78697771  0.66139987    -0.78000
O189        O  0.09814012  0.89029395  0.67901428    -0.76200
O190        O  0.16579718  0.86411995  0.64516652    -1.12400
O191        O  0.16092256  0.93546410  0.68654547    -0.71600
C192        C  0.16762834  0.95605918  0.65563397     0.99200
C193        C  0.22597382  0.80674063  0.60802378     0.95600
Al194      Al  0.14078892  0.82400860  0.61939501     1.55600
O195        O  0.23571875  0.90198498  0.67064106    -0.76200
C196        C  0.07487831  0.86896486  0.65853490     0.99700
C197        C  0.15927426  0.87072280  0.55199953     0.94600
O198        O  0.19115428  0.88223773  0.56839260    -0.81500
O199        O  0.32119907  0.93393439  0.86724308    -0.81000
C200        C  0.39336665  0.80893256  0.78510660     0.98400
O201        O  0.37891628  0.84288712  0.77829588    -0.70100
O202        O  0.32569213  0.89791389  0.79057365    -0.73700
Al203      Al  0.37840394  0.88930505  0.81053041     1.49000
C204        C  0.29257788  0.88148998  0.79964573     0.93600
O205        O  0.30047229  0.82535061  0.89668003    -0.79900
O206        O  0.38101879  0.83541562  0.92760831    -0.73500
Al207      Al  0.31688200  0.87771561  0.87884275     1.90100
O208        O  0.34570412  0.78573808  0.87037280    -0.72500
O209        O  0.43843374  0.85146431  0.87541170    -0.72400
O210        O  0.40383359  0.79945549  0.81993570    -0.78000
O211        O  0.43438013  0.88577601  0.82026716    -0.76200
O212        O  0.36207858  0.86278029  0.85380431    -1.12400
O213        O  0.37978896  0.93933042  0.83779459    -0.71600
C214        C  0.34998000  0.95528779  0.85482222     0.99200
C215        C  0.31139013  0.79082488  0.88525791     0.95600
Al216      Al  0.39002106  0.82156877  0.87197698     1.55600
O217        O  0.28630527  0.86701022  0.83361341    -0.76200
C218        C  0.45465138  0.87255334  0.84859963     0.99700
C219        C  0.36475072  0.86541880  0.94495075     0.94600
O220        O  0.34340658  0.88950412  0.92624533    -0.81500
O221        O  0.17608410  0.59017041  0.88517876    -0.81000
C222        C  0.13690874  0.72620341  0.79199245     0.98400
O223        O  0.13370627  0.68982735  0.78082210    -0.70100
O224        O  0.19848296  0.64837973  0.78642008    -0.73700
Al225      Al  0.14734055  0.63999621  0.80694984     1.49000
C226        C  0.23078001  0.63637164  0.80049545     0.93600
O227        O  0.22871448  0.69138153  0.88158853    -0.79900
O228        O  0.11964802  0.68036496  0.92234969    -0.73500
Al229      Al  0.20027451  0.64199961  0.88206634     1.90100
O230        O  0.17871384  0.73219638  0.89479397    -0.72500
O231        O  0.08154696  0.68442821  0.85606404    -0.72400
O232        O  0.14123568  0.73508324  0.82809415    -0.78000
O233        O  0.09455920  0.62919733  0.82164818    -0.76200
O234        O  0.15978941  0.66203611  0.85430808    -1.12400
O235        O  0.15807020  0.58507024  0.82243172    -0.71600
C236        C  0.16436741  0.56902489  0.85595301     0.99200
C237        C  0.21589871  0.72587911  0.89089226     0.95600
Al238      Al  0.13252845  0.70424638  0.87353589     1.55600
O239        O  0.23301675  0.62660572  0.83667632    -0.76200
C240        C  0.07027890  0.65202499  0.83918430     0.99700
C241        C  0.14396784  0.66562428  0.94602026     0.94600
O242        O  0.17765924  0.65320867  0.93383462    -0.81500
O243        O  0.33012478  0.60007341  0.61156324    -0.81000
C244        C  0.39831215  0.71408061  0.71895134     0.98400
O245        O  0.39990658  0.67627575  0.72290924    -0.70100
O246        O  0.33064248  0.64049229  0.71888222    -0.73700
Al247      Al  0.37880131  0.63235978  0.69058383     1.49000
C248        C  0.29541752  0.63924284  0.70636394     0.93600
O249        O  0.29958240  0.70654778  0.63229193    -0.79900
O250        O  0.40327841  0.68341333  0.58236884    -0.73500
Al251      Al  0.31874679  0.65403681  0.62395553     1.90100
O252        O  0.35430320  0.74009843  0.61835566    -0.72500
O253        O  0.44578387  0.67949464  0.64737967    -0.72400
O254        O  0.39235736  0.72929900  0.68525463    -0.78000
O255        O  0.42966037  0.61960540  0.66879000    -0.76200
O256        O  0.36463617  0.66332784  0.64972954    -1.06000
O257        O  0.36000747  0.58265489  0.66657575    -0.71600
C258        C  0.34332563  0.57341989  0.63385659     0.99200
C259        C  0.31676753  0.73882317  0.62283688     0.95600
Al260      Al  0.39626920  0.70439087  0.63472468     1.55600
O261        O  0.28811371  0.63983758  0.66964452    -0.76200
C262        C  0.45561225  0.64444900  0.65716292     0.99700
C263        C  0.37536164  0.67240451  0.55972053     0.94600
O264        O  0.34036360  0.66614655  0.57309542    -0.81500
O265        O  0.07330791  0.17832038  0.61596664    -0.81000
C266        C  0.21390660  0.14188627  0.69784433     0.98400
O267        O  0.17831332  0.15128550  0.70509903    -0.70100
O268        O  0.11339560  0.19114526  0.69427345    -0.73700
Al269      Al  0.13266184  0.13986718  0.67439404     1.49000
C270        C  0.11776167  0.22677089  0.68153571     0.93600
O271        O  0.17299466  0.22673881  0.58337459    -0.79900
O272        O  0.18774737  0.14807828  0.55546887    -0.73500
Al273      Al  0.12626724  0.19736535  0.60218340     1.90100
O274        O  0.22201895  0.19658053  0.61356844    -0.72500
O275        O  0.18406276  0.08981503  0.60654046    -0.72400
O276        O  0.22514751  0.13452693  0.66234325    -0.78000
O277        O  0.14943363  0.08519658  0.66271775    -0.76200
O278        O  0.15301436  0.16008404  0.62929467    -1.12400
O279        O  0.08285024  0.12499432  0.65179173    -0.71600
C280        C  0.05956700  0.14803896  0.63419107     0.99200
C281        C  0.20848603  0.22692887  0.59605642     0.95600
Al282      Al  0.20063800  0.14379793  0.61101171     1.55600
O283        O  0.12599030  0.23346218  0.64551634    -0.76200
C284        C  0.16696893  0.06888026  0.63282544     0.99700
C285        C  0.15522580  0.15191629  0.53703470     0.94600
O286        O  0.12432532  0.16507433  0.55483556    -0.81500
O287        O  0.42862316  0.35007745  0.61004055    -0.81000
C288        C  0.28287510  0.39639750  0.68288167     0.98400
O289        O  0.31702467  0.40864213  0.69407713    -0.70100
O290        O  0.36012279  0.34666195  0.70712501    -0.73700
Al291      Al  0.37006847  0.39156369  0.67622236     1.49000
C292        C  0.37596856  0.31306132  0.70186053     0.93600
O293        O  0.33329378  0.29148101  0.61926631    -0.79900
O294        O  0.34248179  0.38903897  0.55527003    -0.73500
Al295      Al  0.37950384  0.32269414  0.61539388     1.90100
O296        O  0.29115540  0.33208117  0.59032844    -0.72500
O297        O  0.32648486  0.44270947  0.61438244    -0.72400
O298        O  0.27815066  0.38293028  0.64815164    -0.78000
O299        O  0.38124717  0.43900452  0.64990059    -0.76200
O300        O  0.35418811  0.36677270  0.63163863    -1.12400
O301        O  0.42702615  0.37930091  0.66917773    -0.71600
C302        C  0.44653760  0.36650980  0.63880827     0.99200
C303        C  0.29992845  0.29763227  0.60376358     0.95600
Al304      Al  0.31306189  0.38547457  0.60415857     1.55600
O305        O  0.39171933  0.30344043  0.66845430    -0.76200
C306        C  0.35673260  0.45934152  0.63090222     0.99700
C307        C  0.36022044  0.35979700  0.53866088     0.94600
O308        O  0.37241992  0.33083375  0.55916757    -0.81500
O309        O  0.42905756  0.20116137  0.84608442    -0.81000
C310        C  0.30716777  0.12886390  0.76342533     0.98400
O311        O  0.34364135  0.13663145  0.75676874    -0.70100
O312        O  0.40225495  0.18799503  0.76600970    -0.73700
Al313      Al  0.38774870  0.13920249  0.79152187     1.49000
C314        C  0.38757518  0.22252384  0.76885884     0.93600
O315        O  0.31957935  0.23015086  0.86057927    -0.79900
O316        O  0.32989780  0.14404127  0.90688717    -0.73500
Al317      Al  0.37222606  0.20967126  0.85088149     1.90100
O318        O  0.27991018  0.17892783  0.85139221    -0.72500
O319        O  0.34029824  0.08458387  0.85601498    -0.72400
O320        O  0.29394035  0.12310502  0.79874524    -0.78000
O321        O  0.38151028  0.08493534  0.80535767    -0.76200
O322        O  0.35813008  0.16107857  0.83162912    -1.12400
O323        O  0.43524358  0.13973063  0.82213417    -0.71600
C324        C  0.45034303  0.17068585  0.83840671     0.99200
C325        C  0.28481403  0.21570176  0.85796300     0.95600
Al326      Al  0.31511339  0.13491466  0.85142881     1.55600
O327        O  0.36926965  0.23360327  0.80017981    -0.76200
C328        C  0.36413058  0.06661226  0.83296702     0.99700
C329        C  0.35600571  0.16649315  0.92349877     0.94600
O330        O  0.37616042  0.19165033  0.90367864    -0.81500
O331        O  0.07453881  0.32892728  0.84320285    -0.81000
C332        C  0.21433895  0.39565179  0.77621750     0.98400
O333        O  0.18321227  0.37794230  0.76364508    -0.70100
O334        O  0.12043852  0.32835321  0.76437210    -0.73700
Al335      Al  0.13164332  0.38023377  0.78864598     1.49000
C336        C  0.12775901  0.29288867  0.77498707     0.93600
O337        O  0.18132782  0.29613322  0.87199073    -0.79900
O338        O  0.17263676  0.37604109  0.91367029    -0.73500
Al339      Al  0.12971391  0.31694707  0.85596979     1.90100
O340        O  0.22376497  0.34484294  0.85746326    -0.72500
O341        O  0.15930359  0.43783835  0.86397614    -0.72400
O342        O  0.21647319  0.40716601  0.81222649    -0.78000
O343        O  0.13856879  0.43645852  0.80194290    -0.76200
O344        O  0.14995582  0.36209260  0.83496453    -1.12400
O345        O  0.07827496  0.38449248  0.80827351    -0.71600
C346        C  0.05780994  0.35866591  0.82707032     0.99200
C347        C  0.21687215  0.30868088  0.86585082     0.95600
Al348      Al  0.18927740  0.38913768  0.85988026     1.55600
O349        O  0.13785778  0.28586808  0.80994955    -0.76200
C350        C  0.14679286  0.45594127  0.83357037     0.99700
C351        C  0.14263620  0.35780726  0.92832726     0.94600
O352        O  0.11819055  0.34029542  0.90599415    -0.81500
O353        O  0.91788874  0.86605567  0.33447850    -0.81000
C354        C  0.78318036  0.78288431  0.39754313     0.98400
O355        O  0.81412878  0.77348139  0.37768007    -0.70100
O356        O  0.87275416  0.78109967  0.32638877    -0.73700
Al357      Al  0.86480816  0.80033391  0.37961050     1.49000
C358        C  0.86577689  0.79511263  0.29248139     0.93600
O359        O  0.80801833  0.88797201  0.30709584    -0.79900
O360        O  0.81310842  0.92272229  0.38868245    -0.73500
Al361      Al  0.86149593  0.87509113  0.32482732     1.90100
O362        O  0.76779428  0.86404339  0.35405868    -0.72500
O363        O  0.83634719  0.87006266  0.44407136    -0.72400
O364        O  0.78100107  0.81680596  0.41428767    -0.78000
O365        O  0.86148531  0.80926563  0.43632053    -0.76200
O366        O  0.84376649  0.84758742  0.36724451    -1.12400
O367        O  0.91789434  0.82106213  0.38206739    -0.71600
C368        C  0.93649018  0.84536331  0.35968940     0.99200
C369        C  0.77362135  0.87584632  0.31871738     0.95600
Al370      Al  0.80344573  0.86696221  0.39761362     1.55600
O371        O  0.85768738  0.83151579  0.28857202    -0.76200
C372        C  0.85406063  0.83975825  0.45811059     0.99700
C373        C  0.84129852  0.94212118  0.37276223     0.94600
O374        O  0.86824225  0.92399865  0.35347690    -0.81500
O375        O  0.92295753  0.61381297  0.18378646    -0.81000
C376        C  0.79115028  0.69988062  0.12202378     0.98400
O377        O  0.82705078  0.71251649  0.12316482    -0.70100
O378        O  0.86659145  0.71439504  0.18986928    -0.73700
Al379      Al  0.87664466  0.68833926  0.13993684     1.49000
C380        C  0.87362682  0.70198322  0.22431492     0.93600
O381        O  0.81653508  0.62020587  0.22195776    -0.79900
O382        O  0.84390067  0.56801163  0.11960760    -0.73500
Al383      Al  0.86896293  0.61823368  0.20009933     1.90100
O384        O  0.78395117  0.59915176  0.16900981    -0.72500
O385        O  0.83843226  0.63292126  0.07332319    -0.72400
O386        O  0.78302212  0.66317987  0.12576847    -0.78000
O387        O  0.88997142  0.67133691  0.08703014    -0.76200
O388        O  0.85411418  0.64153993  0.15448517    -1.12400
O389        O  0.93056576  0.67234418  0.15442020    -0.71600
C390        C  0.94528163  0.64066066  0.16913483     0.99200
C391        C  0.78489022  0.60717123  0.20603450     0.95600
Al392      Al  0.81606800  0.61785202  0.12449340     1.55600
O393        O  0.88006361  0.66549569  0.22998653    -0.76200
C394        C  0.86835373  0.65347575  0.06184491     0.99700
C395        C  0.85620527  0.54828773  0.14890287     0.94600
O396        O  0.86203150  0.56494526  0.18215933    -0.81500
O397        O  0.57844191  0.85779385  0.18110122    -0.81000
C398        C  0.72507614  0.79388915  0.12221999     0.98400
O399        O  0.69060687  0.78132120  0.11220001    -0.70100
O400        O  0.64706505  0.76266383  0.17357579    -0.73700
Al401      Al  0.63758468  0.79672693  0.13095683     1.49000
C402        C  0.63336146  0.76635371  0.20836262     0.93600
O403        O  0.68013117  0.85392278  0.23167042    -0.79900
O404        O  0.66053719  0.91736529  0.13554598    -0.73500
Al405      Al  0.63061624  0.85475135  0.20369423     1.90100
O406        O  0.71589566  0.88680320  0.18715414    -0.72500
O407        O  0.67940334  0.86215927  0.08111204    -0.72400
O408        O  0.72980769  0.82883558  0.13616142    -0.78000
O409        O  0.62534706  0.82485253  0.08463362    -0.76200
O410        O  0.65373003  0.84085817  0.15718210    -1.12400
O411        O  0.58175963  0.80246529  0.14473324    -0.71600
C412        C  0.56154550  0.83068828  0.16046608     0.99200
C413        C  0.71133667  0.87355896  0.22217334     0.95600
Al414      Al  0.69295080  0.87126232  0.13661457     1.55600
O415        O  0.62153045  0.80021680  0.22157338    -0.76200
C416        C  0.64901157  0.84633072  0.06483091     0.99700
C417        C  0.64402196  0.93303222  0.16597840     0.94600
O418        O  0.63487071  0.91196752  0.19597117    -0.81500
O419        O  0.57744321  0.60550841  0.33160842    -0.81000
C420        C  0.71561221  0.68976872  0.38394292     0.98400
O421        O  0.68023996  0.69944525  0.39493543    -0.70100
O422        O  0.63406065  0.70638786  0.33393947    -0.73700
Al423      Al  0.62841003  0.67574553  0.37931385     1.49000
C424        C  0.62530363  0.69808724  0.29860813     0.93600
O425        O  0.68137450  0.61424187  0.28491576    -0.79900
O426        O  0.66357149  0.56085329  0.38870508    -0.73500
Al427      Al  0.63080068  0.61083549  0.31164557     1.90100
O428        O  0.71667381  0.58805975  0.33221677    -0.72500
O429        O  0.67892787  0.62554467  0.43412008    -0.72400
O430        O  0.72332298  0.65469402  0.37206971    -0.78000
O431        O  0.61932856  0.65099012  0.42897468    -0.76200
O432        O  0.64980374  0.63187617  0.35689792    -1.12400
O433        O  0.57345406  0.66176470  0.36645997    -0.71600
C434        C  0.55665714  0.63206662  0.34907249     0.99200
C435        C  0.71372215  0.59966461  0.29672788     0.95600
Al436      Al  0.69173421  0.60911229  0.37996554     1.55600
O437        O  0.61936720  0.66203905  0.28714545    -0.76200
C438        C  0.64751251  0.63948993  0.45025338     0.99700
C439        C  0.64923849  0.53961760  0.36075817     0.94600
O440        O  0.63904828  0.55530226  0.32787502    -0.81500
O441        O  0.64095810  0.06189590  0.17700203    -0.81000
C442        C  0.71147633  0.20153190  0.11984321     0.98400
O443        O  0.72319192  0.16863724  0.13377425    -0.70100
O444        O  0.71832010  0.10520911  0.17957361    -0.73700
Al445      Al  0.69701574  0.11804950  0.12825857     1.49000
C446        C  0.70701654  0.11480015  0.21447245     0.93600
O447        O  0.60802942  0.16661872  0.21201561    -0.79900
O448        O  0.57376636  0.15968941  0.12868614    -0.73500
Al449      Al  0.62672781  0.11646127  0.18978569     1.90100
O450        O  0.62550851  0.21078435  0.16686042    -0.72500
O451        O  0.62676725  0.15037258  0.06989325    -0.72400
O452        O  0.67611565  0.20546717  0.10779386    -0.78000
O453        O  0.68744886  0.12629316  0.07265313    -0.76200
O454        O  0.65011536  0.13734598  0.14607263    -1.12400
O455        O  0.67581296  0.06571127  0.12097397    -0.71600
C456        C  0.65678681  0.04533288  0.14649059     0.99200
C457        C  0.61428420  0.20257694  0.20185618     0.95600
Al458      Al  0.62731303  0.17787314  0.12049556     1.55600
O459        O  0.67169103  0.12519662  0.22144369    -0.76200
C460        C  0.65730304  0.13580960  0.05264084     0.99700
C461        C  0.55764548  0.12939019  0.14474805     0.94600
O462        O  0.57780137  0.10536059  0.16470258    -0.81500
O463        O  0.60872953  0.40400488  0.32773118    -0.81000
C464        C  0.70351868  0.27328533  0.37816353     0.98400
O465        O  0.71443902  0.30985820  0.37780663    -0.70100
O466        O  0.71100197  0.35266352  0.31343116    -0.73700
Al467      Al  0.68719358  0.35899629  0.36505368     1.49000
C468        C  0.69685482  0.36094507  0.27991031     0.93600
O469        O  0.61834865  0.30010584  0.28415583    -0.79900
O470        O  0.57054354  0.31837071  0.38961541    -0.73500
Al471      Al  0.61475392  0.35094429  0.30847963     1.90100
O472        O  0.60269665  0.26242436  0.33549179    -0.72500
O473        O  0.63485106  0.31673269  0.43284040    -0.72400
O474        O  0.66725468  0.26364794  0.37738936    -0.78000
O475        O  0.67165268  0.36950045  0.41897977    -0.76200
O476        O  0.64100496  0.33486746  0.35190576    -1.12400
O477        O  0.66837562  0.41250596  0.35403264    -0.71600
C478        C  0.63559774  0.42664715  0.34177960     0.99200
C479        C  0.60854567  0.26648368  0.29823962     0.95600
Al480      Al  0.62076390  0.29413402  0.38127350     1.55600
O481        O  0.65989626  0.36577659  0.27628591    -0.76200
C482        C  0.65286557  0.34846327  0.44401810     0.99700
C483        C  0.54860381  0.33147191  0.36277913     0.94600
O484        O  0.56285660  0.34020483  0.32896771    -0.81500
O485        O  0.88987110  0.07125019  0.33023990    -0.81000
C486        C  0.79936014  0.21138858  0.36529837     0.98400
O487        O  0.78837593  0.17551372  0.37189557    -0.70100
O488        O  0.78846205  0.12692965  0.30986105    -0.73700
Al489      Al  0.81269597  0.12399986  0.36000160     1.49000
C490        C  0.80061631  0.10991679  0.27825723     0.93600
O491        O  0.87919391  0.16364471  0.26819044    -0.79900
O492        O  0.92985890  0.16328209  0.37306357    -0.73500
Al493      Al  0.88359485  0.11865682  0.30072117     1.90100
O494        O  0.89854984  0.20977917  0.31193644    -0.72500
O495        O  0.86611180  0.17503978  0.41680808    -0.72400
O496        O  0.83490256  0.21931548  0.35585843    -0.78000
O497        O  0.83111319  0.11895475  0.41197067    -0.76200
O498        O  0.85892324  0.14369466  0.34145402    -1.12400
O499        O  0.82769683  0.06817314  0.35276052    -0.71600
C500        C  0.86135747  0.05176044  0.34593575     0.99200
C501        C  0.89049388  0.19899791  0.27635056     0.95600
Al502      Al  0.88057483  0.18803629  0.36276688     1.55600
O503        O  0.83627489  0.09810968  0.27507234    -0.76200
C504        C  0.84929243  0.14477975  0.43259586     0.99700
C505        C  0.95190204  0.14831978  0.34633205     0.94600
O506        O  0.93693611  0.13355819  0.31497303    -0.81500
O507        O  0.85538298  0.42526396  0.17036489    -0.81000
C508        C  0.80294685  0.27136660  0.12445656     0.98400
O509        O  0.78707053  0.30461575  0.13263593    -0.70100
O510        O  0.78030059  0.36891021  0.17716993    -0.73700
Al511      Al  0.80758906  0.35705717  0.12673739     1.49000
C512        C  0.79167979  0.36738131  0.21308898     0.93600
O513        O  0.89658985  0.33149136  0.21821244    -0.79900
O514        O  0.93527034  0.32917615  0.13701482    -0.73500
Al515      Al  0.87383487  0.37530688  0.18954430     1.90100
O516        O  0.88491680  0.27919056  0.17961307    -0.72500
O517        O  0.88619716  0.32354784  0.07718511    -0.72400
O518        O  0.84002385  0.26897286  0.11807768    -0.78000
O519        O  0.82527417  0.34737832  0.07237228    -0.76200
O520        O  0.85514028  0.34562016  0.14845208    -1.12400
O521        O  0.82055958  0.41135481  0.11705533    -0.71600
C522        C  0.83817546  0.43632983  0.13910523     0.99200
C523        C  0.89366772  0.29393868  0.21320732     0.95600
Al524      Al  0.88406962  0.30407833  0.12964604     1.55600
O525        O  0.82817238  0.36659269  0.22117956    -0.76200
C526        C  0.85841891  0.33732222  0.05654207     0.99700
C527        C  0.94664149  0.36398067  0.14760586     0.94600
O528        O  0.92266154  0.38812168  0.16389248    -0.81500
O529        O  0.13128302  0.18958773  0.40387963    -0.81000
C530        C  0.22681108  0.12093172  0.28636808     0.98400
O531        O  0.23033225  0.13183535  0.32220828    -0.70100
O532        O  0.21368693  0.18266577  0.37920888    -0.73700
Al533      Al  0.19115509  0.13188296  0.36340185     1.49000
C534        C  0.20953765  0.21774365  0.36589242     0.93600
O535        O  0.12015715  0.21850934  0.29433252    -0.79900
O536        O  0.08429041  0.13975825  0.29135664    -0.73500
Al537      Al  0.12903908  0.19820233  0.34737203     1.90100
O538        O  0.15005567  0.17478387  0.25523147    -0.72500
O539        O  0.12803694  0.07961428  0.31070087    -0.72400
O540        O  0.19290069  0.11283947  0.27201929    -0.78000
O541        O  0.17678555  0.07665182  0.35369019    -0.76200
O542        O  0.15348971  0.15282639  0.33239113    -1.12400
O543        O  0.15729620  0.12975495  0.40923555    -0.71600
C544        C  0.13975185  0.15961125  0.42475551     0.99200
C545        C  0.13360390  0.20830717  0.26025868     0.95600
Al546      Al  0.14007963  0.12874497  0.28643772     1.55600
O547        O  0.17821462  0.22752157  0.34756892    -0.76200
C548        C  0.14856710  0.06009539  0.33468900     0.99700
C549        C  0.06304914  0.15231645  0.32027605     0.94600
O550        O  0.07815725  0.17249023  0.34865548    -0.81500
O551        O  0.14123778  0.32731061  0.05423404    -0.81000
C552        C  0.20918944  0.38213077  0.19795860     0.98400
O553        O  0.22147217  0.36232720  0.16795238    -0.70100
O554        O  0.22141880  0.31479844  0.10512960    -0.73700
Al555      Al  0.20132287  0.36744426  0.11603686     1.49000
C556        C  0.20663663  0.27992324  0.10660743     0.93600
O557        O  0.11052992  0.28826180  0.15889381    -0.79900
O558        O  0.07340487  0.37363570  0.15353596    -0.73500
Al559      Al  0.12716236  0.31088317  0.10807750     1.90100
O560        O  0.12336592  0.33612503  0.20353846    -0.72500
O561        O  0.12970157  0.42965638  0.14112439    -0.72400
O562        O  0.17423217  0.39581681  0.19931377    -0.78000
O563        O  0.19300678  0.42385385  0.12307268    -0.76200
O564        O  0.15175412  0.35298163  0.13124808    -1.12400
O565        O  0.18724103  0.37443746  0.06277961    -0.71600
C566        C  0.16397498  0.35485992  0.04051681     0.99200
C567        C  0.11518789  0.30000548  0.19490831     0.95600
Al568      Al  0.12717408  0.38125085  0.17055219     1.55600
O569        O  0.16989859  0.27507700  0.11145319    -0.76200
C570        C  0.16246804  0.44519712  0.12940911     0.99700
C571        C  0.05768049  0.35690629  0.12372193     0.94600
O572        O  0.07856007  0.33706245  0.09955341    -0.81500
O573        O  0.32953949  0.07194164  0.12381926    -0.81000
C574        C  0.38794135  0.21846212  0.18798314     0.98400
O575        O  0.37316239  0.18605207  0.20066540    -0.70100
O576        O  0.32769348  0.12184584  0.20248250    -0.73700
Al577      Al  0.37769644  0.13435124  0.17630168     1.49000
C578        C  0.29180963  0.12574282  0.19206781     0.93600
O579        O  0.28917359  0.17719506  0.09384032    -0.79900
O580        O  0.36636693  0.17492071  0.05125995    -0.73500
Al581      Al  0.31363942  0.12660521  0.10990562     1.90100
O582        O  0.33467142  0.22310975  0.10906810    -0.72500
O583        O  0.42849443  0.16450179  0.09779256    -0.72400
O584        O  0.39892313  0.22089837  0.15179719    -0.78000
O585        O  0.43250985  0.14297444  0.15954283    -0.76200
O586        O  0.35706295  0.15055568  0.13020474    -1.12400
O587        O  0.38416887  0.08062777  0.15890347    -0.71600
C588        C  0.35934302  0.05761356  0.14203368     0.99200
C589        C  0.29951259  0.21373666  0.09991194     0.95600
Al590      Al  0.38017365  0.19192393  0.10464118     1.55600
O591        O  0.28323665  0.13270951  0.15658093    -0.76200
C592        C  0.44854261  0.15056761  0.12587012     0.99700
C593        C  0.35157205  0.14314649  0.03628728     0.94600
O594        O  0.33694189  0.11669381  0.05870621    -0.81500
O595        O  0.33807378  0.43784189  0.35410201    -0.81000
C596        C  0.37897924  0.28801162  0.28175667     0.98400
O597        O  0.39333798  0.32192431  0.27217282    -0.70100
O598        O  0.33580193  0.37046415  0.25692885    -0.73700
Al599      Al  0.37928978  0.37583754  0.29047417     1.49000
C600        C  0.30213094  0.38618411  0.26161424     0.93600
O601        O  0.27297648  0.34570767  0.34397418    -0.79900
O602        O  0.36763084  0.34633160  0.41026173    -0.73500
Al603      Al  0.30793549  0.38991328  0.34826268     1.90100
O604        O  0.31015302  0.29983465  0.37147270    -0.72500
O605        O  0.42119693  0.32721098  0.35533159    -0.72400
O606        O  0.36240935  0.28354102  0.31535712    -0.78000
O607        O  0.42578668  0.38232901  0.31982389    -0.76200
O608        O  0.35057006  0.36116777  0.33340488    -1.12400
O609        O  0.37167281  0.43327455  0.29769411    -0.71600
C610        C  0.35865638  0.45407921  0.32693218     0.99200
C611        C  0.27683770  0.31121994  0.35812268     0.95600
Al612      Al  0.36431890  0.31791512  0.36085890     1.55600
O613        O  0.29169259  0.40211841  0.29467569    -0.76200
C614        C  0.44138134  0.35646609  0.34152618     0.99700
C615        C  0.34145406  0.36878702  0.42595500     0.94600
O616        O  0.31417826  0.38342982  0.40493141    -0.81500
O617        O  0.16739122  0.61938913  0.07679221    -0.81000
C618        C  0.12523739  0.70750998  0.21590903     0.98400
O619        O  0.11473678  0.71670122  0.18089949    -0.70100
O620        O  0.17649582  0.72320528  0.13303384    -0.73700
Al621      Al  0.12948237  0.69315142  0.12915523     1.49000
C622        C  0.20972115  0.71486966  0.11732939     0.93600
O623        O  0.22724794  0.63569436  0.16822615    -0.79900
O624        O  0.12395879  0.57783859  0.16729556    -0.73500
Al625      Al  0.19498239  0.62846079  0.12396568     1.90100
O626        O  0.18578875  0.61249942  0.21387978    -0.72500
O627        O  0.07642533  0.63896326  0.18171027    -0.72400
O628        O  0.13939373  0.67372212  0.22300657    -0.78000
O629        O  0.07951620  0.66809190  0.12328150    -0.76200
O630        O  0.15232227  0.64963259  0.14864982    -1.12400
O631        O  0.13981872  0.67897227  0.07342816    -0.71600
C632        C  0.15182809  0.64658890  0.05682917     0.99200
C633        C  0.22071974  0.62428393  0.20316291     0.95600
Al634      Al  0.13292608  0.62729097  0.19280321     1.55600
O635        O  0.21769365  0.67926814  0.10600853    -0.76200
C636        C  0.05924986  0.65270895  0.15104847     0.99700
C637        C  0.14956351  0.55730739  0.14876654     0.94600
O638        O  0.18202164  0.57314487  0.13649777    -0.81500
O639        O  0.32045282  0.64465120  0.43468816    -0.81000
C640        C  0.37539034  0.72794584  0.30490370     0.98400
O641        O  0.36691921  0.73498491  0.34091733    -0.70100
O642        O  0.32282385  0.72349945  0.40375924    -0.73700
Al643      Al  0.37214304  0.70102546  0.38471935     1.49000
C644        C  0.28754345  0.71781155  0.39188718     0.93600
O645        O  0.28138579  0.61955735  0.33291861    -0.79900
O646        O  0.36311506  0.58396112  0.32614108    -0.73500
Al647      Al  0.30653761  0.63520857  0.38079654     1.90100
O648        O  0.32067366  0.64167355  0.28537305    -0.72500
O649        O  0.42462753  0.63478087  0.33442023    -0.72400
O650        O  0.38202705  0.69240675  0.29233931    -0.78000
O651        O  0.42613382  0.68944341  0.37133676    -0.76200
O652        O  0.35011349  0.65848519  0.35942859    -1.12400
O653        O  0.38019015  0.67212055  0.43198473    -0.71600
C654        C  0.35250248  0.65507518  0.45126997     0.99200
C655        C  0.28713634  0.62776452  0.29693582     0.95600
Al656      Al  0.37097092  0.63983301  0.31349857     1.55600
O657        O  0.27680845  0.68389520  0.37812204    -0.76200
C658        C  0.44399712  0.66046214  0.35482446     0.99700
C659        C  0.34962582  0.56564109  0.35649380     0.94600
O660        O  0.33169195  0.58437288  0.38444716    -0.81500
O661        O  0.16796943  0.86272904  0.42666623    -0.81000
C662        C  0.11200110  0.80035694  0.28232051     0.98400
O663        O  0.11821115  0.78683388  0.31673908    -0.70100
O664        O  0.15898687  0.78157584  0.38185610    -0.73700
Al665      Al  0.11484717  0.81358975  0.36700598     1.49000
C666        C  0.19627030  0.78553588  0.37872709     0.93600
O667        O  0.21871244  0.88262414  0.32740208    -0.79900
O668        O  0.14109674  0.93441786  0.32555378    -0.73500
Al669      Al  0.18847013  0.87119715  0.37441958     1.90100
O670        O  0.17702934  0.87679099  0.27771837    -0.72500
O671        O  0.07339847  0.89246449  0.32707061    -0.72400
O672        O  0.10890308  0.83739990  0.27667249    -0.78000
O673        O  0.06355049  0.83450266  0.35579485    -0.76200
O674        O  0.14322987  0.85612143  0.34930212    -1.12400
O675        O  0.10855082  0.83505605  0.42018991    -0.71600
C676        C  0.13515361  0.85117485  0.44176504     0.99200
C677        C  0.21236264  0.88014473  0.29048844     0.95600
Al678      Al  0.12668585  0.88294755  0.30601302     1.55600
O679        O  0.21172873  0.81932487  0.37146187    -0.76200
C680        C  0.04990312  0.86676449  0.34242614     0.99700
C681        C  0.15731986  0.94846514  0.35651144     0.94600
O682        O  0.17306108  0.92564606  0.38135216    -0.81500
O683        O  0.33937032  0.85311429  0.06519923    -0.81000
C684        C  0.37731053  0.78821845  0.20846036     0.98400
O685        O  0.37293582  0.77706383  0.17285096    -0.70100
O686        O  0.34129658  0.77584898  0.10267143    -0.73700
Al687      Al  0.38453989  0.80553908  0.12689871     1.49000
C688        C  0.30420429  0.77950546  0.10824240     0.93600
O689        O  0.27980087  0.87768098  0.16015118    -0.79900
O690        O  0.35956032  0.92830803  0.16859728    -0.73500
Al691      Al  0.31411508  0.86389198  0.11583351     1.90100
O692        O  0.31710416  0.87059421  0.21260444    -0.72500
O693        O  0.42461792  0.88215028  0.17364707    -0.72400
O694        O  0.38112727  0.82525636  0.21795827    -0.78000
O695        O  0.43477040  0.82277323  0.14711664    -0.76200
O696        O  0.35619907  0.84848417  0.14403683    -1.12400
O697        O  0.39910569  0.82966147  0.07843009    -0.71600
C698        C  0.37451616  0.84353133  0.05420947     0.99200
C699        C  0.28315909  0.87548928  0.19746935     0.95600
Al700      Al  0.36950015  0.87445978  0.18919504     1.55600
O701        O  0.28992769  0.81294899  0.11849863    -0.76200
C702        C  0.44833090  0.85499805  0.16189857     0.99700
C703        C  0.34611583  0.94133899  0.13584245     0.94600
O704        O  0.33195896  0.91740907  0.11018764    -0.81500
C705        C  0.24795806  0.88024606  0.26326563    -0.15600
C706        C  0.24639191  0.87800322  0.22312574    -0.30800
H707        H  0.27709256  0.88133302  0.27733634     0.13400
H708        H  0.21747480  0.87750564  0.20864442     0.14000
C709        C  0.37860320  0.75599736  0.23795271    -0.15600
C710        C  0.37706230  0.76216718  0.27738746    -0.30800
H711        H  0.37920186  0.72533463  0.22622563     0.13400
H712        H  0.37495294  0.79256278  0.28954511     0.14000
C713        C  0.26013863  0.75244058  0.39275108    -0.15600
C714        C  0.22151966  0.74957641  0.38263890    -0.30800
H715        H  0.27281408  0.78178805  0.40014136     0.13400
H716        H  0.20808570  0.72023443  0.37684881     0.14000
C717        C  0.27731283  0.74423344  0.10430220    -0.15600
C718        C  0.23824180  0.74827640  0.11290638    -0.30800
H719        H  0.28981066  0.71481199  0.09757152     0.13400
H720        H  0.22654263  0.77790445  0.12036802     0.14000
C721        C  0.12132901  0.73508235  0.25015978    -0.15600
C722        C  0.10983293  0.77320688  0.24739727    -0.30800
H723        H  0.13031152  0.72362919  0.27895519     0.13400
H724        H  0.10190335  0.78540330  0.21862287     0.14000
C725        C  0.25550111  0.62604645  0.23027999    -0.15600
C726        C  0.25282608  0.62121181  0.26974083    -0.30800
H727        H  0.28429767  0.63444385  0.21723649     0.13400
H728        H  0.22407592  0.61305460  0.28300867     0.14000
C729        C  0.36542245  0.49817026  0.32793205    -0.15600
C730        C  0.35204325  0.52132534  0.35858636    -0.30800
H731        H  0.37866620  0.51206708  0.30166226     0.13400
H732        H  0.33874531  0.50719983  0.38472020     0.14000
C733        C  0.34399224  0.98516973  0.12718622    -0.15600
C734        C  0.36499364  0.01349020  0.14693616    -0.30800
H735        H  0.32364391  0.99440483  0.10402041     0.13400
H736        H  0.38654094  0.00405817  0.16891333     0.14000
C737        C  0.39193864  0.25406984  0.21531236    -0.15600
C738        C  0.38042274  0.25263723  0.25408448    -0.30800
H739        H  0.40284743  0.28221575  0.20298152     0.13400
H740        H  0.36909054  0.22438783  0.26586255     0.14000
C741        C  0.16716665  0.48899308  0.12599668    -0.15600
C742        C  0.14123258  0.51412479  0.14363550    -0.30800
H743        H  0.19490584  0.50061756  0.11314904     0.13400
H744        H  0.11402388  0.50229377  0.15742805     0.14000
C745        C  0.27511469  0.38431894  0.22772758    -0.15600
C746        C  0.23575465  0.39002388  0.23168801    -0.30800
H747        H  0.28765250  0.37435522  0.19916955     0.13400
H748        H  0.22285585  0.40005700  0.26003880     0.14000
C749        C  0.27154786  0.24737934  0.09667065    -0.15600
C750        C  0.23217120  0.24395461  0.10319775    -0.30800
H751        H  0.28476145  0.27714574  0.09315809     0.13400
H752        H  0.21874613  0.21449848  0.10801922     0.14000
C753        C  0.15995100  0.99242580  0.36218678    -0.15600
C754        C  0.14028971  0.01683553  0.33774703    -0.30800
H755        H  0.18057763  0.00471217  0.38410438     0.13400
H756        H  0.11904439  0.00414626  0.31660748     0.14000
C757        C  0.24167243  0.28417022  0.35771776    -0.15600
C758        C  0.24285231  0.24654951  0.37139000    -0.30800
H759        H  0.21462514  0.29495586  0.34383738     0.13400
H760        H  0.26988484  0.23575209  0.38527913     0.14000
C761        C  0.26255220  0.11949699  0.26020464    -0.15600
C762        C  0.25835167  0.12196288  0.22056728    -0.30800
H763        H  0.29210116  0.12023300  0.27338286     0.13400
H764        H  0.22849338  0.12325677  0.20809584     0.14000
C765        C  0.12977154  0.23500162  0.22547785    -0.15600
C766        C  0.11278855  0.27141561  0.22818732    -0.30800
H767        H  0.14257876  0.22496323  0.19707550     0.13400
H768        H  0.10211460  0.28258060  0.25701965     0.14000
C769        C  0.98913060  0.37559753  0.14401545    -0.15600
C770        C  0.01397887  0.35637333  0.11868808    -0.30800
H771        H  0.00079077  0.39767627  0.16517856     0.13400
H772        H  0.00178927  0.33538240  0.09673122     0.14000
C773        C  0.99551992  0.15128170  0.35054612    -0.15600
C774        C  0.01996700  0.14374839  0.31937448    -0.30800
H775        H  0.00744637  0.16328777  0.37834808     0.13400
H776        H  0.00789816  0.13184013  0.29158391     0.14000
C777        C  0.89335005  0.22720144  0.24301451    -0.15600
C778        C  0.89891485  0.26702576  0.24746926    -0.30800
H779        H  0.88741540  0.21464724  0.21350261     0.13400
H780        H  0.90420369  0.28012019  0.27685901     0.14000
C781        C  0.50535955  0.33474874  0.36959748    -0.15600
C782        C  0.48456993  0.35952749  0.34681057    -0.30800
H783        H  0.49040066  0.31450428  0.39028583     0.13400
H784        H  0.50044741  0.38077071  0.32774227     0.14000
C785        C  0.73264465  0.24021495  0.37871515    -0.15600
C786        C  0.77116330  0.24527782  0.36856617    -0.30800
H787        H  0.72127642  0.21014564  0.38476748     0.13400
H788        H  0.78232026  0.27517411  0.36141897     0.14000
C789        C  0.76326274  0.36582950  0.24732227    -0.15600
C790        C  0.72328234  0.36488981  0.24417094    -0.30800
H791        H  0.77632842  0.36428120  0.27683782     0.13400
H792        H  0.70967657  0.36699242  0.21497838     0.14000
C793        C  0.51408539  0.12395529  0.14343919    -0.15600
C794        C  0.49178184  0.14656345  0.11981041    -0.30800
H795        H  0.49988542  0.10416077  0.16508554     0.13400
H796        H  0.50594167  0.16501075  0.09698619     0.14000
C797        C  0.77799103  0.23462911  0.12289404    -0.15600
C798        C  0.73823553  0.23682190  0.11835509    -0.30800
H799        H  0.79234899  0.20559216  0.12552321     0.13400
H800        H  0.72447977  0.26587044  0.11362735     0.14000
C801        C  0.73473710  0.11486958  0.24806370    -0.15600
C802        C  0.77328416  0.10443381  0.24446553    -0.30800
H803        H  0.72304998  0.12551560  0.27673361     0.13400
H804        H  0.78520915  0.09332828  0.21609056     0.14000
C805        C  0.60988854  0.23612704  0.23083921    -0.15600
C806        C  0.60502575  0.23144457  0.27058336    -0.30800
H807        H  0.61414874  0.26616219  0.21899194     0.13400
H808        H  0.60100575  0.20161794  0.28294063     0.14000
C809        C  0.51209527  0.62899470  0.34688749    -0.15600
C810        C  0.48818756  0.65892606  0.35992029    -0.30800
H811        H  0.49897867  0.60295449  0.33193510     0.13400
H812        H  0.50182740  0.68480281  0.37472503     0.14000
C813        C  0.64860591  0.49562763  0.36589772    -0.15600
C814        C  0.62921907  0.47048077  0.34118906    -0.30800
H815        H  0.66678889  0.48340611  0.38948000     0.13400
H816        H  0.60926865  0.48236734  0.31891986     0.14000
C817        C  0.51762217  0.83025870  0.15465240    -0.15600
C818        C  0.49240183  0.85980302  0.16656274    -0.30800
H819        H  0.50549050  0.80362301  0.13987176     0.13400
H820        H  0.50401928  0.88685215  0.18096968     0.14000
C821        C  0.63798476  0.97686927  0.16805571    -0.15600
C822        C  0.65496666  0.00136934  0.14097647    -0.30800
H823        H  0.62296364  0.98939794  0.19431848     0.13400
H824        H  0.67071785  0.98869417  0.11520162     0.14000
C825        C  0.63128218  0.73008948  0.23308762    -0.15600
C826        C  0.62180264  0.73232597  0.27179634    -0.30800
H827        H  0.63993882  0.70140743  0.21975029     0.13400
H828        H  0.61543115  0.76146531  0.28546501     0.14000
C829        C  0.86308916  0.50494850  0.14679279    -0.15600
C830        C  0.83775166  0.47931141  0.12892059    -0.30800
H831        H  0.88525664  0.49338464  0.16709466     0.13400
H832        H  0.81475397  0.49030489  0.10926431     0.14000
C833        C  0.98924080  0.63495275  0.17135692    -0.15600
C834        C  0.01508179  0.65450120  0.14751357    -0.30800
H835        H  0.00052087  0.61406760  0.19313854     0.13400
H836        H  0.00334597  0.67373781  0.12447893     0.14000
C837        C  0.74804388  0.60239169  0.23055000    -0.15600
C838        C  0.74948510  0.59794610  0.27034563    -0.30800
H839        H  0.71931362  0.60361753  0.21579369     0.13400
H840        H  0.77832268  0.59453201  0.28453231     0.14000
C841        C  0.76057592  0.76761117  0.11926339    -0.15600
C842        C  0.75710729  0.72746211  0.11693062    -0.30800
H843        H  0.78988990  0.78125112  0.12365837     0.13400
H844        H  0.72748604  0.71394331  0.11444160     0.14000
C845        C  0.98093074  0.84687858  0.36252873    -0.15600
C846        C  0.00558040  0.87282300  0.34310940    -0.30800
H847        H  0.99415036  0.82366237  0.38059640     0.13400
H848        H  0.99310495  0.89693132  0.32572187     0.14000
C849        C  0.84032378  0.98646138  0.37395647    -0.15600
C850        C  0.86718520  0.00868615  0.35363446    -0.30800
H851        H  0.81459512  0.00082677  0.38809102     0.13400
H852        H  0.89316699  0.99439021  0.33990999     0.14000
C853        C  0.74859842  0.75501522  0.40095366    -0.15600
C854        C  0.74949339  0.71841399  0.38401354    -0.30800
H855        H  0.72175304  0.76514830  0.41660793     0.13400
H856        H  0.77683004  0.70846993  0.36906735     0.14000
C857        C  0.73962270  0.87357456  0.29061365    -0.15600
C858        C  0.74374043  0.88104684  0.25136112    -0.30800
H859        H  0.71102586  0.86268186  0.30210767     0.13400
H860        H  0.77221950  0.89223003  0.23986137     0.14000
C861        C  0.86665518  0.76883396  0.25668187    -0.15600
C862        C  0.87427585  0.72943745  0.25912521    -0.30800
H863        H  0.86013609  0.78197697  0.22795635     0.13400
H864        H  0.88058814  0.71642704  0.28796946     0.14000
C865        C  0.13703394  0.35347336  0.97191142    -0.15600
C866        C  0.16553573  0.36443474  0.99762806    -0.30800
H867        H  0.11062423  0.33746208  0.98270526     0.13400
H868        H  0.19171680  0.38080787  0.98680502     0.14000
C869        C  0.36295680  0.16600636  0.96714462    -0.15600
C870        C  0.34861614  0.13794766  0.99220172    -0.30800
H871        H  0.38010970  0.19111847  0.97935723     0.13400
H872        H  0.33210442  0.11222777  0.98041138     0.14000
C873        C  0.25172439  0.28158193  0.86757612    -0.15600
C874        C  0.24896666  0.24158225  0.86211265    -0.30800
H875        H  0.28115628  0.29559573  0.86946150     0.13400
H876        H  0.21967455  0.22759139  0.85868928     0.14000
C877        C  0.36536354  0.35749864  0.49469385    -0.15600
C878        C  0.34144424  0.37721873  0.46959032    -0.30800
H879        H  0.38629932  0.33544987  0.48272290     0.13400
H880        H  0.31905271  0.39772371  0.48165134     0.14000
C881        C  0.37544918  0.28595983  0.73587776    -0.15600
C882        C  0.39173849  0.24948918  0.73469188    -0.30800
H883        H  0.36002866  0.29637566  0.76283820     0.13400
H884        H  0.40717627  0.23877156  0.70788440     0.14000
C885        C  0.24749533  0.39592644  0.70988880    -0.15600
C886        C  0.24925982  0.40278362  0.74938601    -0.30800
H887        H  0.21925935  0.38622178  0.69699519     0.13400
H888        H  0.27729695  0.41251155  0.76262840     0.14000
C889        C  0.15505271  0.14226161  0.49388695    -0.15600
C890        C  0.13142747  0.16133216  0.46819885    -0.30800
H891        H  0.17897912  0.12327714  0.48229746     0.13400
H892        H  0.10986721  0.18315223  0.47943210     0.14000
C893        C  0.11494636  0.26162042  0.70893681    -0.15600
C894        C  0.12454430  0.25826605  0.74736002    -0.30800
H895        H  0.10946847  0.29108617  0.69654048     0.13400
H896        H  0.13189264  0.22885730  0.75895182     0.14000
C897        C  0.24143297  0.13899528  0.73216001    -0.15600
C898        C  0.27992216  0.12791898  0.72873603    -0.30800
H899        H  0.22943125  0.14676290  0.76157346     0.13400
H900        H  0.29270426  0.12183802  0.69929013     0.14000
C901        C  0.23416234  0.26318747  0.59084196    -0.15600
C902        C  0.27238700  0.26276902  0.60256131    -0.30800
H903        H  0.22137332  0.29043002  0.57901959     0.13400
H904        H  0.28436586  0.23503402  0.61424144     0.14000
C905        C  0.33742534  0.53081526  0.62198007    -0.15600
C906        C  0.36384562  0.50316261  0.63246702    -0.30800
H907        H  0.31060510  0.52208769  0.60592587     0.13400
H908        H  0.39088995  0.51323515  0.64751956     0.14000
C909        C  0.38251705  0.66845967  0.51663627    -0.15600
C910        C  0.35511421  0.64958155  0.49419993    -0.30800
H911        H  0.40785946  0.68408144  0.50311503     0.13400
H912        H  0.33024007  0.63370221  0.50836892     0.14000
C913        C  0.14431337  0.50051776  0.83266537    -0.15600
C914        C  0.15998833  0.52481226  0.86102519    -0.30800
H915        H  0.13267634  0.51375433  0.80571519     0.13400
H916        H  0.17177426  0.51178498  0.88800213     0.14000
C917        C  0.13392015  0.66584001  0.98878264    -0.15600
C918        C  0.15227255  0.64104990  0.01338291    -0.30800
H919        H  0.11335903  0.68841226  0.00044380     0.13400
H920        H  0.17127445  0.61740984  0.00106081     0.14000
C921        C  0.26166792  0.63797280  0.73442971    -0.15600
C922        C  0.26599231  0.63393758  0.77399825    -0.30800
H923        H  0.23203261  0.64115652  0.72185899     0.13400
H924        H  0.29531067  0.62947962  0.78681907     0.14000
C925        C  0.34717733  0.99933039  0.85825671    -0.15600
C926        C  0.37136537  0.02333499  0.83676136    -0.30800
H927        H  0.32236056  0.01201915  0.87538577     0.13400
H928        H  0.39494722  0.01031807  0.81815147     0.14000
C929        C  0.36633533  0.87094003  0.98827343    -0.15600
C930        C  0.38574524  0.84587679  0.01188929    -0.30800
H931        H  0.34648339  0.89335875  0.00153596     0.13400
H932        H  0.40685800  0.82421176  0.99951270     0.14000
C933        C  0.39709866  0.78077993  0.75099327    -0.15600
C934        C  0.40222037  0.74090594  0.75437037    -0.30800
H935        H  0.39184425  0.79334669  0.72172253     0.13400
H936        H  0.40631910  0.72773007  0.78354183     0.14000
C937        C  0.28376782  0.75597688  0.88790351    -0.15600
C938        C  0.24437060  0.75987069  0.89597495    -0.30800
H939        H  0.29560815  0.72668820  0.87944163     0.13400
H940        H  0.23224620  0.78930507  0.90338633     0.14000
C941        C  0.15613536  0.87500560  0.50828399    -0.15600
C942        C  0.12925240  0.85485708  0.48568708    -0.30800
H943        H  0.18026619  0.89156763  0.49370116     0.13400
H944        H  0.10503846  0.83800239  0.49973667     0.14000
C945        C  0.16040570  0.99978302  0.65830739    -0.15600
C946        C  0.16943143  0.02474439  0.62838915    -0.30800
H947        H  0.14906377  0.01195453  0.68650668     0.13400
H948        H  0.18179822  0.01267631  0.60057487     0.14000
C949        C  0.25393236  0.77251331  0.60640768    -0.15600
C950        C  0.29257883  0.77535677  0.61727052    -0.30800
H951        H  0.24129664  0.74310465  0.59921105     0.13400
H952        H  0.30624468  0.80456932  0.62310611     0.14000
C953        C  0.13705745  0.75607785  0.72402364    -0.15600
C954        C  0.13561236  0.76003010  0.76391728    -0.30800
H955        H  0.13847747  0.72631878  0.71028763     0.13400
H956        H  0.13539985  0.79005909  0.77719597     0.14000
C957        C  0.26530727  0.89071284  0.73289389    -0.15600
C958        C  0.26041361  0.87901407  0.77074572    -0.30800
H959        H  0.29358049  0.90348632  0.72256935     0.13400
H960        H  0.23200876  0.86633864  0.78088827     0.14000
C961        C  0.51418742  0.37619039  0.66799434    -0.15600
C962        C  0.49071608  0.36729346  0.63678651    -0.30800
H963        H  0.50102422  0.38735093  0.69579443     0.13400
H964        H  0.50440617  0.35625727  0.60916041     0.14000
C965        C  0.63258200  0.34244408  0.51592641    -0.15600
C966        C  0.65377567  0.36114328  0.48700705    -0.30800
H967        H  0.61266636  0.31783110  0.50754467     0.13400
H968        H  0.67410773  0.38544378  0.49525945     0.14000
C969        C  0.51916742  0.14348034  0.83602270    -0.15600
C970        C  0.49368098  0.17284722  0.84698652    -0.30800
H971        H  0.50759434  0.11602069  0.82231795     0.13400
H972        H  0.50527449  0.20066550  0.85992963     0.14000
C973        C  0.63488028  0.14922322  0.98325886    -0.15600
C974        C  0.65993516  0.13123283  0.00854422    -0.30800
H975        H  0.60934271  0.16573101  0.99513056     0.13400
H976        H  0.68611933  0.11589617  0.99649004     0.14000
C977        C  0.63169802  0.28417427  0.75945475    -0.15600
C978        C  0.62411579  0.24498165  0.75389172    -0.30800
H979        H  0.64246197  0.29530712  0.78807327     0.13400
H980        H  0.61456176  0.23392402  0.72479318     0.14000
C981        C  0.98907527  0.34422866  0.85427287    -0.15600
C982        C  0.01353677  0.36301503  0.82800737    -0.30800
H983        H  0.00188839  0.32631701  0.87774197     0.13400
H984        H  0.00058802  0.38245345  0.80583909     0.14000
C985        C  0.84741449  0.36661396  0.98992557    -0.15600
C986        C  0.86470550  0.33911964  0.01295403    -0.30800
H987        H  0.82977964  0.39053655  0.00361752     0.13400
H988        H  0.88418713  0.31663618  0.99934605     0.14000
C989        C  0.75623015  0.39714516  0.76405120    -0.15600
C990        C  0.75985551  0.39470936  0.72399355    -0.30800
H991        H  0.72651821  0.40046248  0.77723125     0.13400
H992        H  0.78904047  0.38902242  0.71050643     0.14000
C993        C  0.75310979  0.23560879  0.88400910    -0.15600
C994        C  0.74961454  0.27572313  0.88747527    -0.30800
H995        H  0.78273691  0.22264892  0.88050407     0.13400
H996        H  0.72024146  0.28914241  0.89120365     0.14000
C997        C  0.87098916  0.16253029  0.50008331    -0.15600
C998        C  0.84811887  0.14019119  0.47595560    -0.30800
H999        H  0.89410507  0.18211177  0.48773318     0.13400
H1000       H  0.82601843  0.11952785  0.48841846     0.14000
C1001       C  0.99008021  0.17100742  0.63119588    -0.15600
C1002       C  0.01566626  0.14096432  0.63776143    -0.30800
H1003       H  0.00204187  0.19942258  0.62037189     0.13400
H1004       H  0.00464975  0.11263564  0.64958546     0.14000
C1005       C  0.76137247  0.25634443  0.59979787    -0.15600
C1006       C  0.72582189  0.25501206  0.61882811    -0.30800
H1007       H  0.77115994  0.28409192  0.58577061     0.13400
H1008       H  0.71652936  0.22748952  0.63360937     0.14000
C1009       C  0.75543927  0.12919812  0.72260541    -0.15600
C1010       C  0.75785012  0.12496100  0.76229611    -0.30800
H1011       H  0.72605794  0.12991713  0.70905581     0.13400
H1012       H  0.78694201  0.12210055  0.77606191     0.14000
C1013       C  0.87069680  0.26199527  0.72448975    -0.15600
C1014       C  0.87762138  0.25618243  0.76323992    -0.30800
H1015       H  0.86244411  0.29164614  0.71419025     0.13400
H1016       H  0.88564546  0.22661701  0.77388034     0.14000
C1017       C  0.52458629  0.65169644  0.63321787    -0.15600
C1018       C  0.49826042  0.63357970  0.65767092    -0.30800
H1019       H  0.51356648  0.67053372  0.60949007     0.13400
H1020       H  0.50844751  0.61327303  0.68051123     0.14000
C1021       C  0.67565041  0.52463740  0.64109919    -0.15600
C1022       C  0.64467393  0.49898297  0.64270084    -0.30800
H1023       H  0.70556389  0.51287733  0.63589467     0.13400
H1024       H  0.61502165  0.51064272  0.64949211     0.14000
C1025       C  0.67611490  0.64083469  0.51765715    -0.15600
C1026       C  0.64474602  0.64631777  0.49380749    -0.30800
H1027       H  0.70310978  0.62677318  0.50584281     0.13400
H1028       H  0.61744924  0.65945702  0.50601543     0.14000
C1029       C  0.85300764  0.51983445  0.86141083    -0.15600
C1030       C  0.87751485  0.49244372  0.84500854    -0.30800
H1031       H  0.82597221  0.50995350  0.87695815     0.13400
H1032       H  0.90393983  0.50199702  0.82828482     0.14000
C1033       C  0.00305474  0.65219561  0.86772047    -0.15600
C1034       C  0.02794086  0.64103572  0.83825604    -0.30800
H1035       H  0.01475917  0.66731934  0.89416672     0.13400
H1036       H  0.01688609  0.62492249  0.81211963     0.14000
C1037       C  0.85367096  0.64323042  0.98985470    -0.15600
C1038       C  0.87696258  0.65950034  0.01840329    -0.30800
H1039       H  0.83026082  0.62216949  0.99876420     0.13400
H1040       H  0.90094268  0.68007284  0.00996419     0.14000
C1041       C  0.78241169  0.63181096  0.75307205    -0.15600
C1042       C  0.74265678  0.63622265  0.75602669    -0.30800
H1043       H  0.79653515  0.62774697  0.72387792     0.13400
H1044       H  0.72799279  0.63721547  0.78518508     0.14000
C1045       C  0.52229817  0.85957960  0.87271909    -0.15600
C1046       C  0.49832943  0.87970765  0.84829292    -0.30800
H1047       H  0.50913140  0.84047528  0.89557195     0.13400
H1048       H  0.51125439  0.89749945  0.82429355     0.14000
C1049       C  0.66235391  0.98799959  0.86754418    -0.15600
C1050       C  0.64797229  0.01240774  0.83986555    -0.30800
H1051       H  0.67680981  0.00070889  0.89379502     0.13400
H1052       H  0.63478738  0.99959064  0.81299202     0.14000
C1053       C  0.64166200  0.84979225  0.02172451    -0.15600
C1054       C  0.66986263  0.86300294  0.99633412    -0.30800
H1055       H  0.61428910  0.83644636  0.01013176     0.13400
H1056       H  0.69776957  0.87516390  0.00790423     0.14000
C1057       C  0.62317936  0.74896853  0.77829055    -0.15600
C1058       C  0.61606340  0.75244057  0.73892390    -0.30800
H1059       H  0.63030074  0.71956759  0.78995905     0.13400
H1060       H  0.60927768  0.78183942  0.72707156     0.14000
C1061       C  0.78651410  0.76097894  0.87924319    -0.15600
C1062       C  0.74776743  0.75702283  0.88832480    -0.30800
H1063       H  0.79891810  0.78999675  0.87069032     0.13400
H1064       H  0.73552457  0.72820125  0.89769259     0.14000
C1065       C  0.85728977  0.86772831  0.52685527    -0.15600
C1066       C  0.86467347  0.83770298  0.50084102    -0.30800
H1067       H  0.84528561  0.89578963  0.51601744     0.13400
H1068       H  0.87636766  0.80949162  0.51162237     0.14000
C1069       C  0.00451584  0.85879322  0.64066466    -0.15600
C1070       C  0.03191867  0.87695047  0.66327994    -0.30800
H1071       H  0.01392435  0.83978435  0.61564468     0.13400
H1072       H  0.02251897  0.89660679  0.68780074     0.14000
C1073       C  0.87689313  0.00274368  0.65588316    -0.15600
C1074       C  0.85431161  0.02457985  0.63117603    -0.30800
H1075       H  0.89874482  0.01795698  0.67464926     0.13400
H1076       H  0.83383514  0.00923413  0.61101904     0.14000
C1077       C  0.78045610  0.76491649  0.63641690    -0.15600
C1078       C  0.74195207  0.76852926  0.62703270    -0.30800
H1079       H  0.79223984  0.73537396  0.64307343     0.13400
H1080       H  0.72919623  0.79794976  0.62192462     0.14000
C1081       C  0.90755966  0.77961284  0.76161220    -0.15600
C1082       C  0.91027576  0.73940241  0.75721258    -0.30800
H1083       H  0.90446612  0.79219024  0.79160902     0.13400
H1084       H  0.91117083  0.72672563  0.72713297     0.14000
C1085       C  0.78240894  0.89614327  0.76043838    -0.15600
C1086       C  0.74451680  0.88246441  0.75665983    -0.30800
H1087       H  0.79313842  0.90664379  0.78927416     0.13400
H1088       H  0.73401346  0.87205321  0.72769109     0.14000
loop_ 
_geom_bond_atom_site_label_1 
_geom_bond_atom_site_label_2 
_geom_bond_distance 
_geom_bond_site_symmetry_2 
_ccdc_geom_bond_type 
O1           C16   1.256       .  A
O1           Al9   1.874       .  S
C2           O12   1.257       .  A
C2            O3   1.271       .  A
C2         C1081   1.499       .  S
O3           Al5   1.966       .  S
O4            C6   1.249       .  A
O4           Al5   1.851       .  S
Al5          O13   1.860       .  S
Al5          O15   1.962       .  S
Al5          O14   1.783       .  S
C6           O19   1.266       .  A
C6         C1077   1.462       .  S
O7           C17   1.258       .  A
O7           Al9   1.870       .  S
O8           C21   1.260       .  A
O8          Al18   1.904       .  S
Al9          O22   1.935       .  S
Al9          O19   1.945       .  S
Al9          O14   1.785       .  S
O10          C17   1.269       .  A
O10         Al18   1.944       .  S
O11          C20   1.270       .  A
O11         Al18   1.940       .  S
O12         Al18   1.893       .  S
O13          C20   1.251       .  A
O14         Al18   1.782       .  S
O15          C16   1.273       .  A
C16        C1065   1.479       .  S
C17        C1085   1.478       .  S
C20        C1069   1.469   1_655  S
C21          O22   1.265       .  A
C21        C1073   1.486   1_565  S
O23          C38   1.256       .  A
O23         Al31   1.901       .  S
C24          O34   1.269       .  A
C24          O25   1.261       .  A
C24        C1057   1.491       .  S
O25         Al27   1.899       .  S
O26          C28   1.258       .  A
O26         Al27   1.896       .  S
Al27         O35   1.884       .  S
Al27         O37   1.911       .  S
Al27         O36   1.788       .  S
C28          O41   1.262       .  A
C28        C1062   1.455       .  S
O29          C39   1.255       .  A
O29         Al31   1.908       .  S
O30          C43   1.273       .  A
O30         Al40   1.940       .  S
Al31         O44   1.875       .  S
Al31         O41   1.882       .  S
Al31         O36   1.793       .  S
O32          C39   1.254       .  A
O32         Al40   1.892       .  S
O33          C42   1.258       .  A
O33         Al40   1.904       .  S
O34         Al40   1.942       .  S
O35          C42   1.253       .  A
O36         Al40   1.788       .  S
O37          C38   1.263       .  A
C38        C1054   1.473       .  S
C39        C1086   1.474       .  S
C42        C1045   1.472       .  S
C43          O44   1.258       .  A
C43        C1049   1.474       .  S
O45          C60   1.258       .  A
O45         Al53   1.878       .  S
C46          O56   1.259       .  A
C46          O47   1.276       .  A
C46        C1082   1.497       .  S
O47         Al49   1.972       .  S
O48          C50   1.245       .  A
O48         Al49   1.856       .  S
Al49         O57   1.864       .  S
Al49         O59   1.973       .  S
Al49         O58   1.787       .  S
C50          O63   1.257       .  A
C50        C1061   1.456       .  S
O51          C61   1.260       .  A
O51         Al53   1.888       .  S
O52          C65   1.265       .  A
O52         Al62   1.912       .  S
Al53         O66   1.895       .  S
Al53         O63   1.896       .  S
Al53         O58   1.785       .  S
O54          C61   1.262       .  A
O54         Al62   1.918       .  S
O55          C64   1.260       .  A
O55         Al62   1.908       .  S
O56         Al62   1.887       .  S
O57          C64   1.248       .  A
O58         Al62   1.791       .  S
O59          C60   1.275       .  A
C60        C1037   1.491       .  S
C61        C1041   1.469       .  S
C64        C1033   1.461   1_655  S
C65          O66   1.259       .  A
C65        C1029   1.468       .  S
O67          C82   1.255       .  A
O67         Al75   1.878       .  S
C68          O78   1.268       .  A
C68          O69   1.269       .  A
C68        C1058   1.492       .  S
O69         Al71   1.934       .  S
O70          C72   1.248       .  A
O70         Al71   1.875       .  S
Al71         O79   1.872       .  S
Al71         O81   1.919       .  S
Al71         O80   1.795       .  S
C72          O85   1.257       .  A
C72        C1078   1.470       .  S
O73          C83   1.257       .  A
O73         Al75   1.887       .  S
O74          C87   1.272       .  A
O74         Al84   1.932       .  S
Al75         O88   1.906       .  S
Al75         O85   1.891       .  S
Al75         O80   1.795       .  S
O76          C83   1.258       .  A
O76         Al84   1.911       .  S
O77          C86   1.257       .  A
O77         Al84   1.917       .  S
O78         Al84   1.915       .  S
O79          C86   1.247       .  A
O80         Al84   1.794       .  S
O81          C82   1.265       .  A
C82        C1025   1.472       .  S
C83        C1042   1.468       .  S
C86        C1017   1.471       .  S
C87          O88   1.261       .  A
C87        C1021   1.483       .  S
O89         C104   1.257       .  A
O89         Al97   1.871       .  S
C90         O100   1.265       .  A
C90          O91   1.258       .  A
C90        C1009   1.480       .  S
O91         Al93   1.892       .  S
O92          C94   1.259       .  A
O92         Al93   1.916       .  S
Al93        O101   1.914       .  S
Al93        O103   1.922       .  S
Al93        O102   1.781       .  S
C94         O107   1.253       .  A
C94        C1005   1.480       .  S
O95         C105   1.256       .  A
O95         Al97   1.863       .  S
O96         C109   1.265       .  A
O96        Al106   1.942       .  S
Al97        O110   1.890       .  S
Al97        O107   1.907       .  S
Al97        O102   1.795       .  S
O98         C105   1.269       .  A
O98        Al106   1.932       .  S
O99         C108   1.263       .  A
O99        Al106   1.915       .  S
O100       Al106   1.926       .  S
O101        C108   1.264       .  A
O102       Al106   1.789       .  S
O103        C104   1.270       .  A
C104        C997   1.463       .  S
C105       C1013   1.462       .  S
C108       C1074   1.488       .  S
C109        O110   1.255       .  A
C109       C1001   1.481       .  S
O111        C126   1.259       .  A
O111       Al119   1.906       .  S
C112        O122   1.265       .  A
C112        O113   1.254       .  A
C112        C989   1.487       .  S
O113       Al115   1.882       .  S
O114        C116   1.264       .  A
O114       Al115   1.925       .  S
Al115       O123   1.913       .  S
Al115       O125   1.897       .  S
Al115       O124   1.794       .  S
C116        O129   1.264       .  A
C116        C994   1.482       .  S
O117        C127   1.257       .  A
O117       Al119   1.909       .  S
O118        C131   1.268       .  A
O118       Al128   1.936       .  S
Al119       O132   1.910       .  S
Al119       O129   1.894       .  S
Al119       O124   1.795       .  S
O120        C127   1.257       .  A
O120       Al128   1.876       .  S
O121        C130   1.255       .  A
O121       Al128   1.884       .  S
O122       Al128   1.944       .  S
O123        C130   1.266       .  A
O124       Al128   1.794       .  S
O125        C126   1.256       .  A
C126        C985   1.479       .  S
C127       C1014   1.468       .  S
C130       C1030   1.475       .  S
C131        O132   1.265       .  A
C131        C981   1.490       .  S
O133        C148   1.258       .  A
O133       Al141   1.904       .  S
C134        O144   1.265       .  A
C134        O135   1.266       .  A
C134       C1010   1.484       .  S
O135       Al137   1.930       .  S
O136        C138   1.255       .  A
O136       Al137   1.875       .  S
Al137       O145   1.911       .  S
Al137       O147   1.915       .  S
Al137       O146   1.791       .  S
C138        O151   1.266       .  A
C138        C993   1.477       .  S
O139        C149   1.256       .  A
O139       Al141   1.898       .  S
O140        C153   1.264       .  A
O140       Al150   1.895       .  S
Al141       O154   1.939       .  S
Al141       O151   1.932       .  S
Al141       O146   1.793       .  S
O142        C149   1.250       .  A
O142       Al150   1.887       .  S
O143        C152   1.254       .  A
O143       Al150   1.890       .  S
O144       Al150   1.903       .  S
O145        C152   1.261       .  A
O146       Al150   1.791       .  S
O147        C148   1.262       .  A
C148        C973   1.487       .  S
C149        C978   1.466       .  S
C152       C1050   1.472       .  S
C153        O154   1.271       .  A
C153        C969   1.480       .  S
O155        C170   1.261       .  A
O155       Al163   1.915       .  S
C156        O166   1.264       .  A
C156        O157   1.257       .  A
C156        C990   1.490       .  S
O157       Al159   1.900       .  S
O158        C160   1.272       .  A
O158       Al159   1.949       .  S
Al159       O167   1.971       .  S
Al159       O169   1.928       .  S
Al159       O168   1.788       .  S
C160        O173   1.259       .  A
C160       C1006   1.481       .  S
O161        C171   1.266       .  A
O161       Al163   1.926       .  S
O162        C175   1.264       .  A
O162       Al172   1.936       .  S
Al163       O176   1.898       .  S
Al163       O173   1.883       .  S
Al163       O168   1.779       .  S
O164        C171   1.253       .  A
O164       Al172   1.873       .  S
O165        C174   1.253       .  A
O165       Al172   1.864       .  S
O166       Al172   1.932       .  S
O167        C174   1.276       .  A
O168       Al172   1.790       .  S
O169        C170   1.266       .  A
C170        C965   1.493       .  S
C171        C977   1.468       .  S
C174       C1022   1.478       .  S
C175        O176   1.263       .  A
C175        C961   1.482       .  S
O177        C192   1.268       .  A
O177       Al185   1.909       .  S
C178        O188   1.253       .  A
C178        O179   1.261       .  A
C178        C953   1.482       .  S
O179       Al181   1.915       .  S
O180        C182   1.255       .  A
O180       Al181   1.866       .  S
Al181       O189   1.859       .  S
Al181       O191   1.921       .  S
Al181       O190   1.782       .  S
C182        O195   1.258       .  A
C182        C957   1.461       .  S
O183        C193   1.264       .  A
O183       Al185   1.896       .  S
O184        C197   1.257       .  A
O184       Al194   1.903       .  S
Al185       O198   1.910       .  S
Al185       O195   1.916       .  S
Al185       O190   1.789       .  S
O186        C193   1.270       .  A
O186       Al194   1.932       .  S
O187        C196   1.270       .  A
O187       Al194   1.935       .  S
O188       Al194   1.891       .  S
O189        C196   1.252       .  A
O190       Al194   1.786       .  S
O191        C192   1.265       .  A
C192        C945   1.477       .  S
C193        C949   1.478       .  S
C196       C1070   1.468       .  S
C197        O198   1.259       .  A
C197        C941   1.477       .  S
O199        C214   1.260       .  A
O199       Al207   1.918       .  S
C200        O210   1.266       .  A
C200        O201   1.256       .  A
C200        C933   1.472       .  S
O201       Al203   1.871       .  S
O202        C204   1.265       .  A
O202       Al203   1.917       .  S
Al203       O211   1.907       .  S
Al203       O213   1.887       .  S
Al203       O212   1.783       .  S
C204        O217   1.255       .  A
C204        C958   1.456       .  S
O205        C215   1.260       .  A
O205       Al207   1.921       .  S
O206        C219   1.270       .  A
O206       Al216   1.933       .  S
Al207       O220   1.863       .  S
Al207       O217   1.866       .  S
Al207       O212   1.788       .  S
O208        C215   1.256       .  A
O208       Al216   1.894       .  S
O209        C218   1.260       .  A
O209       Al216   1.895       .  S
O210       Al216   1.934       .  S
O211        C218   1.258       .  A
O212       Al216   1.782       .  S
O213        C214   1.259       .  A
C214        C925   1.471       .  S
C215        C937   1.478       .  S
C218       C1046   1.477       .  S
C219        O220   1.255       .  A
C219        C929   1.461       .  S
O221        C236   1.262       .  A
O221       Al229   1.901       .  S
C222        O232   1.250       .  A
C222        O223   1.265       .  A
C222        C954   1.476       .  S
O223       Al225   1.944       .  S
O224        C226   1.253       .  A
O224       Al225   1.854       .  S
Al225       O233   1.858       .  S
Al225       O235   1.942       .  S
Al225       O234   1.790       .  S
C226        O239   1.261       .  A
C226        C922   1.466       .  S
O227        C237   1.261       .  A
O227       Al229   1.890       .  S
O228        C241   1.250       .  A
O228       Al238   1.870       .  S
Al229       O242   1.915       .  S
Al229       O239   1.927       .  S
Al229       O234   1.789       .  S
O230        C237   1.266       .  A
O230       Al238   1.933       .  S
O231        C240   1.266       .  A
O231       Al238   1.917       .  S
O232       Al238   1.864       .  S
O233        C240   1.251       .  A
O234       Al238   1.787       .  S
O235        C236   1.270       .  A
C236        C914   1.488       .  S
C237        C938   1.481       .  S
C240       C1034   1.459       .  S
C241        O242   1.263       .  A
C241        C917   1.466       .  S
O243        C258   1.253       .  A
O243       Al251   1.877       .  S
C244        O254   1.261       .  A
C244        O245   1.267       .  A
C244        C934   1.481       .  S
O245       Al247   1.939       .  S
O246        C248   1.254       .  A
O246       Al247   1.876       .  S
Al247       O255   1.890       .  S
Al247       O257   1.932       .  S
Al247       O256   1.793       .  S
C248        O261   1.257       .  A
C248        C921   1.459       .  S
O249        C259   1.255       .  A
O249       Al251   1.880       .  S
O250        C263   1.258       .  A
O250       Al260   1.890       .  S
Al251       O264   1.888       .  S
Al251       O261   1.892       .  S
Al251       O256   1.791       .  S
O252        C259   1.262       .  A
O252       Al260   1.934       .  S
O253        C262   1.262       .  A
O253       Al260   1.911       .  S
O254       Al260   1.877       .  S
O255        C262   1.254       .  A
O256       Al260   1.793       .  S
O257        C258   1.268       .  A
C258        C905   1.478       .  S
C259        C950   1.479       .  S
C262       C1018   1.473       .  S
C263        O264   1.263       .  A
C263        C909   1.463       .  S
O265        C280   1.264       .  A
O265       Al273   1.927       .  S
C266        O276   1.263       .  A
C266        O267   1.252       .  A
C266        C897   1.485       .  S
O267       Al269   1.883       .  S
O268        C270   1.271       .  A
O268       Al269   1.934       .  S
Al269       O277   1.940       .  S
Al269       O279   1.896       .  S
Al269       O278   1.785       .  S
C270        O283   1.256       .  A
C270        C893   1.471       .  S
O271        C281   1.264       .  A
O271       Al273   1.937       .  S
O272        C285   1.265       .  A
O272       Al282   1.921       .  S
Al273       O286   1.904       .  S
Al273       O283   1.870       .  S
Al273       O278   1.796       .  S
O274        C281   1.263       .  A
O274       Al282   1.890       .  S
O275        C284   1.258       .  A
O275       Al282   1.878       .  S
O276       Al282   1.942       .  S
O277        C284   1.271       .  A
O278       Al282   1.783       .  S
O279        C280   1.254       .  A
C280       C1002   1.487       .  S
C281        C901   1.485       .  S
C284        C946   1.476       .  S
C285        O286   1.264       .  A
C285        C889   1.476       .  S
O287        C302   1.257       .  A
O287       Al295   1.878       .  S
C288        O298   1.252       .  A
C288        O289   1.268       .  A
C288        C885   1.479       .  S
O289       Al291   1.950       .  S
O290        C292   1.249       .  A
O290       Al291   1.853       .  S
Al291       O299   1.850       .  S
Al291       O301   1.960       .  S
Al291       O300   1.780       .  S
C292        O305   1.268       .  A
C292        C881   1.461       .  S
O293        C303   1.255       .  A
O293       Al295   1.857       .  S
O294        C307   1.262       .  A
O294       Al304   1.903       .  S
Al295       O308   1.923       .  S
Al295       O305   1.945       .  S
Al295       O300   1.774       .  S
O296        C303   1.274       .  A
O296       Al304   1.966       .  S
O297        C306   1.277       .  A
O297       Al304   1.978       .  S
O298       Al304   1.869       .  S
O299        C306   1.251       .  A
O300       Al304   1.784       .  S
O301        C302   1.271       .  A
C302        C962   1.477       .  S
C303        C902   1.474       .  S
C306        C906   1.474       .  S
C307        O308   1.263       .  A
C307        C877   1.481       .  S
O309        C324   1.264       .  A
O309       Al317   1.926       .  S
C310        O320   1.273       .  A
C310        O311   1.261       .  A
C310        C898   1.484       .  S
O311       Al313   1.890       .  S
O312        C314   1.254       .  A
O312       Al313   1.900       .  S
Al313       O321   1.878       .  S
Al313       O323   1.900       .  S
Al313       O322   1.806       .  S
C314        O327   1.259       .  A
C314        C882   1.467       .  S
O315        C325   1.257       .  A
O315       Al317   1.914       .  S
O316        C329   1.272       .  A
O316       Al326   1.946       .  S
Al317       O330   1.880       .  S
Al317       O327   1.888       .  S
Al317       O322   1.793       .  S
O318        C325   1.249       .  A
O318       Al326   1.885       .  S
O319        C328   1.251       .  A
O319       Al326   1.888       .  S
O320       Al326   1.943       .  S
O321        C328   1.248       .  A
O322       Al326   1.798       .  S
O323        C324   1.262       .  A
C324        C970   1.481       .  S
C325        C874   1.484       .  S
C328        C926   1.468       .  S
C329        O330   1.260       .  A
C329        C869   1.483       .  S
O331        C346   1.270       .  A
O331       Al339   1.943       .  S
C332        O342   1.263       .  A
C332        O333   1.265       .  A
C332        C886   1.483       .  S
O333       Al335   1.907       .  S
O334        C336   1.263       .  A
O334       Al335   1.933       .  S
Al335       O343   1.928       .  S
Al335       O345   1.898       .  S
Al335       O344   1.788       .  S
C336        O349   1.248       .  A
C336        C894   1.471       .  S
O337        C347   1.271       .  A
O337       Al339   1.948       .  S
O338        C351   1.264       .  A
O338       Al348   1.932       .  S
Al339       O352   1.873       .  S
Al339       O349   1.862       .  S
Al339       O344   1.790       .  S
O340        C347   1.257       .  A
O340       Al348   1.877       .  S
O341        C350   1.267       .  A
O341       Al348   1.913       .  S
O342       Al348   1.926       .  S
O343        C350   1.266       .  A
O344       Al348   1.794       .  S
O345        C346   1.263       .  A
C346        C982   1.487       .  S
C347        C873   1.480       .  S
C350        C913   1.486       .  S
C351        O352   1.249       .  A
C351        C865   1.477       .  S
O353        C368   1.268       .  A
O353       Al361   1.942       .  S
C354        O364   1.255       .  A
C354        O355   1.261       .  A
C354        C853   1.479       .  S
O355       Al357   1.909       .  S
O356        C358   1.258       .  A
O356       Al357   1.901       .  S
Al357       O365   1.920       .  S
Al357       O367   1.900       .  S
Al357       O366   1.782       .  S
C358        O371   1.251       .  A
C358        C861   1.474       .  S
O359        C369   1.273       .  A
O359       Al361   1.943       .  S
O360        C373   1.254       .  A
O360       Al370   1.906       .  S
Al361       O374   1.890       .  S
Al361       O371   1.882       .  S
Al361       O366   1.791       .  S
O362        C369   1.264       .  A
O362       Al370   1.895       .  S
O363        C372   1.271       .  A
O363       Al370   1.917       .  S
O364       Al370   1.910       .  S
O365        C372   1.265       .  A
O366       Al370   1.796       .  S
O367        C368   1.263       .  A
C368        C845   1.489       .  S
C369        C857   1.485       .  S
C372       C1066   1.481       .  S
C373        O374   1.255       .  A
C373        C849   1.475       .  S
O375        C390   1.259       .  A
O375       Al383   1.884       .  S
C376        O386   1.255       .  A
C376        O377   1.268       .  A
C376        C842   1.480       .  S
O377       Al379   1.940       .  S
O378        C380   1.255       .  A
O378       Al379   1.900       .  S
Al379       O387   1.900       .  S
Al379       O389   1.951       .  S
Al379       O388   1.793       .  S
C380        O393   1.251       .  A
C380        C862   1.471       .  S
O381        C391   1.261       .  A
O381       Al383   1.891       .  S
O382        C395   1.262       .  A
O382       Al392   1.911       .  S
Al383       O396   1.876       .  S
Al383       O393   1.888       .  S
Al383       O388   1.799       .  S
O384        C391   1.265       .  A
O384       Al392   1.932       .  S
O385        C394   1.265       .  A
O385       Al392   1.931       .  S
O386       Al392   1.875       .  S
O387        C394   1.257       .  A
O388       Al392   1.800       .  S
O389        C390   1.274       .  A
C390        C833   1.485       .  S
C391        C837   1.479       .  S
C394       C1038   1.495       .  S
C395        O396   1.254       .  A
C395        C829   1.461       .  S
O397        C412   1.262       .  A
O397       Al405   1.913       .  S
C398        O408   1.256       .  A
C398        O399   1.269       .  A
C398        C841   1.480       .  S
O399       Al401   1.942       .  S
O400        C402   1.251       .  A
O400       Al401   1.865       .  S
Al401       O409   1.873       .  S
Al401       O411   1.926       .  S
Al401       O410   1.783       .  S
C402        O415   1.268       .  A
C402        C825   1.472       .  S
O403        C413   1.265       .  A
O403       Al405   1.912       .  S
O404        C417   1.261       .  A
O404       Al414   1.885       .  S
Al405       O418   1.927       .  S
Al405       O415   1.937       .  S
Al405       O410   1.786       .  S
O406        C413   1.265       .  A
O406       Al414   1.929       .  S
O407        C416   1.266       .  A
O407       Al414   1.937       .  S
O408       Al414   1.880       .  S
O409        C416   1.251       .  A
O410       Al414   1.785       .  S
O411        C412   1.266       .  A
C412        C817   1.483       .  S
C413        C858   1.485       .  S
C416       C1053   1.473       .  S
C417        O418   1.265       .  A
C417        C821   1.473       .  S
O419        C434   1.261       .  A
O419       Al427   1.904       .  S
C420        O430   1.255       .  A
C420        O421   1.276       .  A
C420        C854   1.473       .  S
O421       Al423   1.970       .  S
O422        C424   1.249       .  A
O422       Al423   1.847       .  S
Al423       O431   1.885       .  S
Al423       O433   1.942       .  S
Al423       O432   1.782       .  S
C424        O437   1.268       .  A
C424        C826   1.465       .  S
O425        C435   1.258       .  A
O425       Al427   1.905       .  S
O426        C439   1.261       .  A
O426       Al436   1.878       .  S
Al427       O440   1.954       .  S
Al427       O437   1.942       .  S
Al427       O432   1.782       .  S
O428        C435   1.259       .  A
O428       Al436   1.920       .  S
O429        C438   1.263       .  A
O429       Al436   1.930       .  S
O430       Al436   1.859       .  S
O431        C438   1.253       .  A
O432       Al436   1.787       .  S
O433        C434   1.270       .  A
C434        C809   1.494       .  S
C435        C838   1.478       .  S
C438       C1026   1.474       .  S
C439        O440   1.276       .  A
C439        C813   1.475       .  S
O441        C456   1.266       .  A
O441       Al449   1.920       .  S
C442        O452   1.262       .  A
C442        O443   1.262       .  A
C442        C798   1.470       .  S
O443       Al445   1.897       .  S
O444        C446   1.261       .  A
O444       Al445   1.922       .  S
Al445       O453   1.916       .  S
Al445       O455   1.887       .  S
Al445       O454   1.790       .  S
C446        O459   1.251       .  A
C446        C801   1.466       .  S
O447        C457   1.262       .  A
O447       Al449   1.923       .  S
O448        C461   1.262       .  A
O448       Al458   1.901       .  S
Al449       O462   1.879       .  S
Al449       O459   1.868       .  S
Al449       O454   1.795       .  S
O450        C457   1.258       .  A
O450       Al458   1.888       .  S
O451        C460   1.263       .  A
O451       Al458   1.914       .  S
O452       Al458   1.910       .  S
O453        C460   1.261       .  A
O454       Al458   1.787       .  S
O455        C456   1.260       .  A
C456        C822   1.472       .  S
C457        C805   1.475       .  S
C460        C974   1.484       .  S
C461        O462   1.254       .  A
C461        C793   1.466       .  S
O463        C478   1.258       .  A
O463       Al471   1.881       .  S
C464        O474   1.251       .  A
C464        O465   1.267       .  A
C464        C785   1.475       .  S
O465       Al467   1.932       .  S
O466        C468   1.258       .  A
O466       Al467   1.903       .  S
Al467       O475   1.901       .  S
Al467       O477   1.933       .  S
Al467       O476   1.791       .  S
C468        O481   1.254       .  A
C468        C790   1.484       .  S
O469        C479   1.258       .  A
O469       Al471   1.870       .  S
O470        C483   1.252       .  A
O470       Al480   1.883       .  S
Al471       O484   1.890       .  S
Al471       O481   1.908       .  S
Al471       O476   1.797       .  S
O472        C479   1.269       .  A
O472       Al480   1.948       .  S
O473        C482   1.265       .  A
O473       Al480   1.936       .  S
O474       Al480   1.864       .  S
O475        C482   1.257       .  A
O476       Al480   1.806       .  S
O477        C478   1.270       .  A
C478        C814   1.475       .  S
C479        C806   1.483       .  S
C482        C966   1.495       .  S
C483        O484   1.259       .  A
C483        C781   1.465       .  S
O485        C500   1.261       .  A
O485       Al493   1.886       .  S
C486        O496   1.252       .  A
C486        O487   1.266       .  A
C486        C786   1.477       .  S
O487       Al489   1.936       .  S
O488        C490   1.257       .  A
O488       Al489   1.877       .  S
Al489       O497   1.863       .  S
Al489       O499   1.938       .  S
Al489       O498   1.780       .  S
C490        O503   1.260       .  A
C490        C802   1.471       .  S
O491        C501   1.259       .  A
O491       Al493   1.870       .  S
O492        C505   1.252       .  A
O492       Al502   1.885       .  S
Al493       O506   1.910       .  S
Al493       O503   1.925       .  S
Al493       O498   1.784       .  S
O494        C501   1.271       .  A
O494       Al502   1.944       .  S
O495        C504   1.267       .  A
O495       Al502   1.920       .  S
O496       Al502   1.872       .  S
O497        C504   1.253       .  A
O498       Al502   1.781       .  S
O499        C500   1.271       .  A
C500        C850   1.473       .  S
C501        C777   1.469       .  S
C504        C998   1.461       .  S
C505        O506   1.260       .  A
C505        C773   1.468       .  S
O507        C522   1.261       .  A
O507       Al515   1.899       .  S
C508        O518   1.257       .  A
C508        O509   1.255       .  A
C508        C797   1.474       .  S
O509       Al511   1.880       .  S
O510        C512   1.267       .  A
O510       Al511   1.946       .  S
Al511       O519   1.930       .  S
Al511       O521   1.884       .  S
Al511       O520   1.801       .  S
C512        O525   1.253       .  A
C512        C789   1.480       .  S
O513        C523   1.261       .  A
O513       Al515   1.922       .  S
O514        C527   1.263       .  A
O514       Al524   1.914       .  S
Al515       O528   1.882       .  S
Al515       O525   1.869       .  S
Al515       O520   1.798       .  S
O516        C523   1.258       .  A
O516       Al524   1.877       .  S
O517        C526   1.257       .  A
O517       Al524   1.880       .  S
O518       Al524   1.911       .  S
O519        C526   1.267       .  A
O520       Al524   1.795       .  S
O521        C522   1.252       .  A
C522        C830   1.474       .  S
C523        C778   1.477       .  S
C526        C986   1.473       .  S
C527        O528   1.253       .  A
C527        C769   1.472       .  S
O529        C544   1.261       .  A
O529       Al537   1.919       .  S
C530        O540   1.262       .  A
C530        O531   1.255       .  A
C530        C761   1.473       .  S
O531       Al533   1.889       .  S
O532        C534   1.263       .  A
O532       Al533   1.914       .  S
Al533       O541   1.919       .  S
Al533       O543   1.896       .  S
Al533       O542   1.792       .  S
C534        O547   1.267       .  A
C534        C758   1.474       .  S
O535        C545   1.264       .  A
O535       Al537   1.935       .  S
O536        C549   1.262       .  A
O536       Al546   1.907       .  S
Al537       O550   1.897       .  S
Al537       O547   1.903       .  S
Al537       O542   1.784       .  S
O538        C545   1.255       .  A
O538       Al546   1.889       .  S
O539        C548   1.254       .  A
O539       Al546   1.872       .  S
O540       Al546   1.901       .  S
O541        C548   1.262       .  A
O542       Al546   1.785       .  S
O543        C544   1.260       .  A
C544        C890   1.478       .  S
C545        C765   1.481       .  S
C548        C754   1.467       .  S
C549        O550   1.264       .  A
C549        C774   1.466       .  S
O551        C566   1.272       .  A
O551       Al559   1.941       .  S
C552        O562   1.257       .  A
C552        O553   1.260       .  A
C552        C746   1.465       .  S
O553       Al555   1.882       .  S
O554        C556   1.258       .  A
O554       Al555   1.909       .  S
Al555       O563   1.909       .  S
Al555       O565   1.868       .  S
Al555       O564   1.790       .  S
C556        O569   1.245       .  A
C556        C750   1.477       .  S
O557        C567   1.273       .  A
O557       Al559   1.942       .  S
O558        C571   1.255       .  A
O558       Al568   1.905       .  S
Al559       O572   1.875       .  S
Al559       O569   1.872       .  S
Al559       O564   1.790       .  S
O560        C567   1.260       .  A
O560       Al568   1.877       .  S
O561        C570   1.267       .  A
O561       Al568   1.899       .  S
O562       Al568   1.910       .  S
O563        C570   1.262       .  A
O564       Al568   1.800       .  S
O565        C566   1.256       .  A
C566        C866   1.475   1_554  S
C567        C766   1.475       .  S
C570        C741   1.469       .  S
C571        O572   1.247       .  A
C571        C770   1.472       .  S
O573        C588   1.273       .  A
O573       Al581   1.961       .  S
C574        O584   1.265       .  A
C574        O575   1.258       .  A
C574        C737   1.493       .  S
O575       Al577   1.899       .  S
O576        C578   1.261       .  A
O576       Al577   1.922       .  S
Al577       O585   1.929       .  S
Al577       O587   1.884       .  S
Al577       O586   1.789       .  S
C578        O591   1.251       .  A
C578        C762   1.466       .  S
O579        C589   1.275       .  A
O579       Al581   1.961       .  S
O580        C593   1.263       .  A
O580       Al590   1.928       .  S
Al581       O594   1.899       .  S
Al581       O591   1.862       .  S
Al581       O586   1.787       .  S
O582        C589   1.254       .  A
O582       Al590   1.850       .  S
O583        C592   1.257       .  A
O583       Al590   1.871       .  S
O584       Al590   1.946       .  S
O585        C592   1.269       .  A
O586       Al590   1.794       .  S
O587        C588   1.258       .  A
C588        C734   1.492       .  S
C589        C749   1.469       .  S
C592        C794   1.463       .  S
C593        O594   1.256       .  A
C593        C870   1.488   1_554  S
O595        C610   1.258       .  A
O595       Al603   1.887       .  S
C596        O606   1.257       .  A
C596        O597   1.265       .  A
C596        C738   1.488       .  S
O597       Al599   1.946       .  S
O598        C600   1.251       .  A
O598       Al599   1.854       .  S
Al599       O607   1.858       .  S
Al599       O609   1.940       .  S
Al599       O608   1.789       .  S
C600        O613   1.267       .  A
C600        C745   1.459       .  S
O601        C611   1.255       .  A
O601       Al603   1.875       .  S
O602        C615   1.260       .  A
O602       Al612   1.898       .  S
Al603       O616   1.926       .  S
Al603       O613   1.930       .  S
Al603       O608   1.784       .  S
O604        C611   1.267       .  A
O604       Al612   1.932       .  S
O605        C614   1.268       .  A
O605       Al612   1.930       .  S
O606       Al612   1.893       .  S
O607        C614   1.254       .  A
O608       Al612   1.783       .  S
O609        C610   1.265       .  A
C610        C729   1.481       .  S
C611        C757   1.474       .  S
C614        C782   1.459       .  S
C615        O616   1.263       .  A
C615        C878   1.484       .  S
O617        C632   1.252       .  A
O617       Al625   1.859       .  S
C618        O628   1.249       .  A
C618        O619   1.270       .  A
C618        C721   1.464       .  S
O619       Al621   1.950       .  S
O620        C622   1.254       .  A
O620       Al621   1.860       .  S
Al621       O629   1.871       .  S
Al621       O631   1.945       .  S
Al621       O630   1.777       .  S
C622        O635   1.267       .  A
C622        C718   1.465       .  S
O623        C633   1.250       .  A
O623       Al625   1.855       .  S
O624        C637   1.252       .  A
O624       Al634   1.866       .  S
Al625       O638   1.936       .  S
Al625       O635   1.945       .  S
Al625       O630   1.783       .  S
O626        C633   1.277       .  A
O626       Al634   1.978       .  S
O627        C636   1.274       .  A
O627       Al634   1.971       .  S
O628       Al634   1.847       .  S
O629        C636   1.255       .  A
O630       Al634   1.776       .  S
O631        C632   1.270       .  A
C632        C918   1.463       .  S
C633        C725   1.484       .  S
C636        C834   1.484       .  S
C637        O638   1.268       .  A
C637        C742   1.468       .  S
O639        C654   1.256       .  A
O639       Al647   1.890       .  S
C640        O650   1.269       .  A
C640        O641   1.254       .  A
C640        C710   1.474       .  S
O641       Al643   1.873       .  S
O642        C644   1.261       .  A
O642       Al643   1.913       .  S
Al643       O651   1.894       .  S
Al643       O653   1.885       .  S
Al643       O652   1.796       .  S
C644        O657   1.263       .  A
C644        C713   1.477       .  S
O645        C655   1.251       .  A
O645       Al647   1.884       .  S
O646        C659   1.268       .  A
O646       Al656   1.926       .  S
Al647       O660   1.900       .  S
Al647       O657   1.910       .  S
Al647       O652   1.789       .  S
O648        C655   1.267       .  A
O648       Al656   1.938       .  S
O649        C658   1.265       .  A
O649       Al656   1.942       .  S
O650       Al656   1.926       .  S
O651        C658   1.256       .  A
O652       Al656   1.786       .  S
O653        C654   1.257       .  A
C654        C910   1.455       .  S
C655        C726   1.486       .  S
C658        C810   1.490       .  S
C659        O660   1.264       .  A
C659        C730   1.479       .  S
O661        C676   1.261       .  A
O661       Al669   1.894       .  S
C662        O672   1.254       .  A
C662        O663   1.263       .  A
C662        C722   1.470       .  S
O663       Al665   1.895       .  S
O664        C666   1.255       .  A
O664       Al665   1.901       .  S
Al665       O673   1.898       .  S
Al665       O675   1.919       .  S
Al665       O674   1.799       .  S
C666        O679   1.258       .  A
C666        C714   1.477       .  S
O667        C677   1.258       .  A
O667       Al669   1.900       .  S
O668        C681   1.258       .  A
O668       Al678   1.885       .  S
Al669       O682   1.896       .  S
Al669       O679   1.898       .  S
Al669       O674   1.803       .  S
O670        C677   1.264       .  A
O670       Al678   1.931       .  S
O671        C680   1.265       .  A
O671       Al678   1.933       .  S
O672       Al678   1.890       .  S
O673        C680   1.259       .  A
O674       Al678   1.807       .  S
O675        C676   1.264       .  A
C676        C942   1.485       .  S
C677        C705   1.489       .  S
C680        C846   1.496       .  S
C681        O682   1.256       .  A
C681        C753   1.473       .  S
O683        C698   1.268       .  A
O683       Al691   1.915       .  S
C684        O694   1.273       .  A
C684        O685   1.254       .  A
C684        C709   1.468       .  S
O685       Al687   1.852       .  S
O686        C688   1.257       .  A
O686       Al687   1.925       .  S
Al687       O695   1.899       .  S
Al687       O697   1.876       .  S
Al687       O696   1.803       .  S
C688        O701   1.255       .  A
C688        C717   1.477       .  S
O689        C699   1.259       .  A
O689       Al691   1.916       .  S
O690        C703   1.273       .  A
O690       Al700   1.959       .  S
Al691       O704   1.883       .  S
Al691       O701   1.873       .  S
Al691       O696   1.786       .  S
O692        C699   1.261       .  A
O692       Al700   1.913       .  S
O693        C702   1.262       .  A
O693       Al700   1.923       .  S
O694       Al700   1.953       .  S
O695        C702   1.258       .  A
O696       Al700   1.790       .  S
O697        C698   1.256       .  A
C698        C930   1.464       .  S
C699        C706   1.492       .  S
C702        C818   1.490       .  S
C703        O704   1.257       .  A
C703        C733   1.492       .  S
C705        C706   1.346       .  D
C705        H707   1.087       .  S
C706        H708   1.086       .  S
C709        C710   1.334       .  D
C709        H711   1.088       .  S
C710        H712   1.087       .  S
C713        C714   1.340       .  D
C713        H715   1.087       .  S
C714        H716   1.087       .  S
C717        C718   1.341       .  D
C717        H719   1.086       .  S
C718        H720   1.087       .  S
C721        C722   1.332       .  D
C721        H723   1.088       .  S
C722        H724   1.087       .  S
C725        C726   1.335       .  D
C725        H727   1.087       .  S
C726        H728   1.087       .  S
C729        C730   1.348       .  D
C729        H731   1.086       .  S
C730        H732   1.087       .  S
C733        C734   1.342   1_565  D
C733        H735   1.087       .  S
C734        H736   1.087       .  S
C737        C738   1.350       .  D
C737        H739   1.086       .  S
C738        H740   1.087       .  S
C741        C742   1.335       .  D
C741        H743   1.087       .  S
C742        H744   1.087       .  S
C745        C746   1.335       .  D
C745        H747   1.088       .  S
C746        H748   1.087       .  S
C749        C750   1.335       .  D
C749        H751   1.087       .  S
C750        H752   1.087       .  S
C753        C754   1.341   1_565  D
C753        H755   1.086   1_565  S
C754        H756   1.087       .  S
C757        C758   1.339       .  D
C757        H759   1.087       .  S
C758        H760   1.087       .  S
C761        C762   1.340       .  D
C761        H763   1.086       .  S
C762        H764   1.088       .  S
C765        C766   1.343       .  D
C765        H767   1.087       .  S
C766        H768   1.086       .  S
C769        C770   1.339   1_655  D
C769        H771   1.087   1_655  S
C770        H772   1.087       .  S
C773        C774   1.339   1_655  D
C773        H775   1.087   1_655  S
C774        H776   1.087       .  S
C777        C778   1.342       .  D
C777        H779   1.087       .  S
C778        H780   1.086       .  S
C781        C782   1.335       .  D
C781        H783   1.086       .  S
C782        H784   1.088       .  S
C785        C786   1.337       .  D
C785        H787   1.087       .  S
C786        H788   1.087       .  S
C789        C790   1.341       .  D
C789        H791   1.087       .  S
C790        H792   1.086       .  S
C793        C794   1.336       .  D
C793        H795   1.087       .  S
C794        H796   1.087       .  S
C797        C798   1.342       .  D
C797        H799   1.087       .  S
C798        H800   1.087       .  S
C801        C802   1.340       .  D
C801        H803   1.087       .  S
C802        H804   1.087       .  S
C805        C806   1.349       .  D
C805        H807   1.087       .  S
C806        H808   1.086       .  S
C809        C810   1.346       .  D
C809        H811   1.086       .  S
C810        H812   1.087       .  S
C813        C814   1.338       .  D
C813        H815   1.087       .  S
C814        H816   1.087       .  S
C817        C818   1.352       .  D
C817        H819   1.087       .  S
C818        H820   1.086       .  S
C821        C822   1.344   1_565  D
C821        H823   1.087       .  S
C822        H824   1.087   1_545  S
C825        C826   1.331       .  D
C825        H827   1.087       .  S
C826        H828   1.087       .  S
C829        C830   1.337       .  D
C829        H831   1.087       .  S
C830        H832   1.087       .  S
C833        C834   1.339   1_655  D
C833        H835   1.087   1_655  S
C834        H836   1.087       .  S
C837        C838   1.344       .  D
C837        H839   1.086       .  S
C838        H840   1.087       .  S
C841        C842   1.340       .  D
C841        H843   1.087       .  S
C842        H844   1.087       .  S
C845        C846   1.354   1_655  D
C845        H847   1.087       .  S
C846        H848   1.086   1_455  S
C849        C850   1.342   1_565  D
C849        H851   1.087   1_565  S
C850        H852   1.087   1_545  S
C853        C854   1.336       .  D
C853        H855   1.087       .  S
C854        H856   1.087       .  S
C857        C858   1.346       .  D
C857        H859   1.087       .  S
C858        H860   1.086       .  S
C861        C862   1.340       .  D
C861        H863   1.087       .  S
C862        H864   1.087       .  S
C865        C866   1.337       .  D
C865        H867   1.087       .  S
C866        H868   1.087       .  S
C869        C870   1.344       .  D
C869        H871   1.087       .  S
C870        H872   1.086       .  S
C873        C874   1.342       .  D
C873        H875   1.087       .  S
C874        H876   1.087       .  S
C877        C878   1.347       .  D
C877        H879   1.087       .  S
C878        H880   1.087       .  S
C881        C882   1.333       .  D
C881        H883   1.087       .  S
C882        H884   1.087       .  S
C885        C886   1.341       .  D
C885        H887   1.087       .  S
C886        H888   1.086       .  S
C889        C890   1.343       .  D
C889        H891   1.087       .  S
C890        H892   1.087       .  S
C893        C894   1.336       .  D
C893        H895   1.087       .  S
C894        H896   1.088       .  S
C897        C898   1.344       .  D
C897        H899   1.087       .  S
C898        H900   1.086       .  S
C901        C902   1.341       .  D
C901        H903   1.086       .  S
C902        H904   1.088       .  S
C905        C906   1.333       .  D
C905        H907   1.086       .  S
C906        H908   1.088       .  S
C909        C910   1.339       .  D
C909        H911   1.087       .  S
C910        H912   1.088       .  S
C913        C914   1.347       .  D
C913        H915   1.087       .  S
C914        H916   1.086       .  S
C917        C918   1.331   1_556  D
C917        H919   1.087   1_556  S
C918        H920   1.088       .  S
C921        C922   1.343       .  D
C921        H923   1.087       .  S
C922        H924   1.086       .  S
C925        C926   1.341   1_565  D
C925        H927   1.087   1_565  S
C926        H928   1.087       .  S
C929        C930   1.334   1_556  D
C929        H931   1.088   1_556  S
C930        H932   1.087   1_554  S
C933        C934   1.344       .  D
C933        H935   1.087       .  S
C934        H936   1.086       .  S
C937        C938   1.347       .  D
C937        H939   1.087       .  S
C938        H940   1.087       .  S
C941        C942   1.350       .  D
C941        H943   1.087       .  S
C942        H944   1.086       .  S
C945        C946   1.339   1_565  D
C945        H947   1.087   1_565  S
C946        H948   1.087       .  S
C949        C950   1.348       .  D
C949        H951   1.087       .  S
C950        H952   1.086       .  S
C953        C954   1.340       .  D
C953        H955   1.087       .  S
C954        H956   1.087       .  S
C957        C958   1.338       .  D
C957        H959   1.087       .  S
C958        H960   1.087       .  S
C961        C962   1.343       .  D
C961        H963   1.086       .  S
C962        H964   1.087       .  S
C965        C966   1.348       .  D
C965        H967   1.087       .  S
C966        H968   1.086       .  S
C969        C970   1.345       .  D
C969        H971   1.087       .  S
C970        H972   1.087       .  S
C973        C974   1.347   1_556  D
C973        H975   1.086       .  S
C974        H976   1.087   1_554  S
C977        C978   1.336       .  D
C977        H979   1.087       .  S
C978        H980   1.087       .  S
C981        C982   1.349   1_655  D
C981        H983   1.086   1_655  S
C982        H984   1.087       .  S
C985        C986   1.342   1_556  D
C985        H987   1.087   1_556  S
C986        H988   1.087   1_554  S
C989        C990   1.346       .  D
C989        H991   1.087       .  S
C990        H992   1.086       .  S
C993        C994   1.343       .  D
C993        H995   1.087       .  S
C994        H996   1.086       .  S
C997        C998   1.333       .  D
C997        H999   1.087       .  S
C998       H1000   1.087       .  S
C1001      C1002   1.342   1_655  D
C1001      H1003   1.087   1_655  S
C1002      H1004   1.086       .  S
C1005      C1006   1.341       .  D
C1005      H1007   1.087       .  S
C1006      H1008   1.087       .  S
C1009      C1010   1.341       .  D
C1009      H1011   1.087       .  S
C1010      H1012   1.086       .  S
C1013      C1014   1.337       .  D
C1013      H1015   1.087       .  S
C1014      H1016   1.087       .  S
C1017      C1018   1.339       .  D
C1017      H1019   1.088       .  S
C1018      H1020   1.086       .  S
C1021      C1022   1.337       .  D
C1021      H1023   1.087       .  S
C1022      H1024   1.087       .  S
C1025      C1026   1.341       .  D
C1025      H1027   1.087       .  S
C1026      H1028   1.087       .  S
C1029      C1030   1.337       .  D
C1029      H1031   1.087       .  S
C1030      H1032   1.087       .  S
C1033      C1034   1.333       .  D
C1033      H1035   1.088       .  S
C1034      H1036   1.087       .  S
C1037      C1038   1.345   1_556  D
C1037      H1039   1.087       .  S
C1038      H1040   1.086       .  S
C1041      C1042   1.340       .  D
C1041      H1043   1.087       .  S
C1042      H1044   1.087       .  S
C1045      C1046   1.341       .  D
C1045      H1047   1.087       .  S
C1046      H1048   1.087       .  S
C1049      C1050   1.336   1_565  D
C1049      H1051   1.087   1_565  S
C1050      H1052   1.087   1_545  S
C1053      C1054   1.336   1_554  D
C1053      H1055   1.087       .  S
C1054      H1056   1.087   1_556  S
C1057      C1058   1.349       .  D
C1057      H1059   1.087       .  S
C1058      H1060   1.086       .  S
C1061      C1062   1.332       .  D
C1061      H1063   1.087       .  S
C1062      H1064   1.087       .  S
C1065      C1066   1.338       .  D
C1065      H1067   1.087       .  S
C1066      H1068   1.087       .  S
C1069      C1070   1.331       .  D
C1069      H1071   1.087       .  S
C1070      H1072   1.087       .  S
C1073      C1074   1.349       .  D
C1073      H1075   1.087       .  S
C1074      H1076   1.086       .  S
C1077      C1078   1.335       .  D
C1077      H1079   1.088       .  S
C1078      H1080   1.087       .  S
C1081      C1082   1.347       .  D
C1081      H1083   1.087       .  S
C1082      H1084   1.087       .  S
C1085      C1086   1.349       .  D
C1085      H1087   1.086       .  S
C1086      H1088   1.087       .  S
