geometry optimzed in LAMMPS
_audit_creation_date              2020-11-30 
_audit_creation_method            'lammps2cif' 
_symmetry_space_group_name_H-M    'P1' 
_symmetry_Int_Tables_number       1 
_symmetry_cell_setting            triclinic 
loop_ 
_symmetry_equiv_pos_as_xyz 
  x,y,z 
_cell_length_a                    32.53367447 
_cell_length_b                    30.76281437942423 
_cell_length_c                    26.90205341732726 
_cell_angle_alpha                 93.8557047505411 
_cell_angle_beta                  84.1893746131437 
_cell_angle_gamma                 88.30092703964763 
loop_ 
_atom_site_label 
_atom_site_type_symbol 
_atom_site_fract_x 
_atom_site_fract_y 
_atom_site_fract_z 
_atom_site_charge 
O1          O  0.03834111  0.50045685  0.06410897    -0.74700
O2          O  0.03784768  0.48977373  0.41836951    -0.74700
O3          O  0.03858334  0.55760091  0.48948952    -0.74800
O4          O  0.03769816  0.43263035  0.99364791    -0.74800
O5          O  0.96895419  0.43620101  0.00233365    -0.74800
O6          O  0.96983804  0.56102328  0.49801138    -0.74700
O7          O  0.96913079  0.49307902  0.42693473    -0.74700
O8          O  0.96959721  0.50385627  0.07264613    -0.74800
Ni9        Ni  0.04027493  0.49473686  0.49112681     1.25400
Ni10       Ni  0.96723649  0.49902871  0.00017506     1.25400
C11         C  0.00391817  0.50261870  0.09260815     0.87500
C12         C  0.00347977  0.49071734  0.39832613     0.87400
C13         C  0.00444547  0.58015279  0.49240926     0.87400
C14         C  0.00308902  0.41373665  0.00062632     0.87600
O15         O  0.03780904  0.49214472  0.31356402    -0.74700
O16         O  0.03786605  0.50202575  0.16930845    -0.74700
O17         O  0.03335232  0.55949824  0.25317702    -0.74800
O18         O  0.04174665  0.43451339  0.22973516    -0.74800
O19         O  0.97300004  0.43314133  0.23768231    -0.74800
O20         O  0.96462688  0.55714164  0.25961205    -0.74700
O21         O  0.96925709  0.49976648  0.17684696    -0.74700
O22         O  0.96917044  0.49076700  0.32145447    -0.74800
Ni23       Ni  0.04012163  0.49713262  0.24119180     1.25400
Ni24       Ni  0.96667604  0.49505971  0.24926493     1.25400
C25         C  0.00347369  0.49073795  0.34171924     0.87500
C26         C  0.00366774  0.50191493  0.14897827     0.87400
C27         C  0.99751333  0.57880863  0.26052519     0.87400
C28         C  0.00842096  0.41333998  0.22866112     0.87600
O29         O  0.10234714  0.98116475  0.43075170    -0.81200
O30         O  0.90631850  0.97547232  0.50591393    -0.65900
O31         O  0.01821847  0.00993640  0.46541349    -1.12500
C32         C  0.02614496  0.99331873  0.12102908     1.05700
O33         O  0.89596449  0.01849032  0.07535747    -0.79100
O34         O  0.96001890  0.07462195  0.06397381    -0.66600
Ni35       Ni  0.04743894  0.97553475  0.40973338     1.34900
C36         C  0.99503032  0.09022598  0.05068400     0.84500
O37         O  0.94125271  0.00268130  0.42277061    -0.79600
O38         O  0.99533534  0.96907889  0.38590668    -0.89900
C39         C  0.88216663  0.99559042  0.54042693     0.84000
O40         O  0.04137469  0.92266233  0.44335264    -0.68100
O41         O  0.00303758  0.02747513  0.12405785    -0.87400
C42         C  0.00731174  0.90590958  0.45823418     0.84900
C43         C  0.97135005  0.00250271  0.39061279     1.06400
H44         H  0.97934841  0.95563662  0.05307075     0.38200
O45         O  0.98041407  0.98583150  0.04543994    -1.10000
O46         O  0.02813310  0.06577887  0.04366885    -0.66700
Ni47       Ni  0.03761971  0.00248171  0.02605950     1.26300
O48         O  0.97337259  0.92902245  0.46684944    -0.66900
O49         O  0.05635222  0.99078187  0.08846898    -0.79200
C50         C  0.11621869  0.00097108  0.96681683     0.84200
O51         O  0.09301678  0.01704705  0.00476347    -0.66400
Ni52       Ni  0.95092809  0.02254902  0.09873439     1.27400
Ni53       Ni  0.96112695  0.99186324  0.48454750     1.26100
H54         H  0.01872416  0.04042963  0.45920456     0.38800
O55         O  0.10414830  0.96075671  0.25325047    -0.81200
O56         O  0.90934269  0.97234396  0.22589319    -0.65900
O57         O  0.02736729  0.99205189  0.22436433    -1.12500
C58         C  0.98620214  0.04419601  0.37516695     1.05700
O59         O  0.88699232  0.03524091  0.26733473    -0.79100
O60         O  0.94985766  0.09013625  0.26636218    -0.66600
Ni61       Ni  0.06662741  0.94443095  0.20485873     1.34900
C62         C  0.98743257  0.09886570  0.25418636     0.84500
O63         O  0.97251064  0.95558215  0.15717005    -0.79600
O64         O  0.03266098  0.92491177  0.15481629    -0.89900
C65         C  0.88108271  0.00152852  0.23931899     0.84000
O66         O  0.04039020  0.90706838  0.25124290    -0.68100
O67         O  0.96137537  0.07194670  0.36138536    -0.87400
C68         C  0.00250521  0.89778890  0.25883053     0.84900
C69         C  0.00937844  0.95308698  0.13869391     1.06400
H70         H  0.95860520  0.98021899  0.30848131     0.38200
O71         O  0.96595280  0.00492179  0.29004434    -1.10000
O72         O  0.01811150  0.07512195  0.26418901    -0.66700
Ni73       Ni  0.02538378  0.01779525  0.28925970     1.26300
O74         O  0.97295894  0.92203807  0.24683929    -0.66900
O75         O  0.02242404  0.04403955  0.35520725    -0.79200
C76         C  0.11193740  0.99770245  0.27360837     0.84200
O77         O  0.08399149  0.02770179  0.28415790    -0.66400
Ni78       Ni  0.92619005  0.05168046  0.31321168     1.27400
Ni79       Ni  0.96811244  0.98053268  0.22386045     1.26100
H80         H  0.03551114  0.01595994  0.20468742     0.38800
O81         O  0.49833393  0.96827905  0.06192909    -0.74700
O82         O  0.50463919  0.96889791  0.41581385    -0.74700
O83         O  0.56102931  0.96804414  0.98548590    -0.74800
O84         O  0.44232298  0.96787881  0.99142153    -0.74800
O85         O  0.43955251  0.04053902  0.49833502    -0.74800
O86         O  0.55848297  0.04125999  0.49292837    -0.74700
O87         O  0.50186076  0.04140231  0.42231903    -0.74700
O88         O  0.49534229  0.04078394  0.06790297    -0.74800
Ni89       Ni  0.50162796  0.96561829  0.98852936     1.25400
Ni90       Ni  0.49884646  0.04351151  0.49555680     1.25400
C91         C  0.49606816  0.00457371  0.08920174     0.87500
C92         C  0.50320216  0.00529625  0.39487866     0.87400
C93         C  0.57957128  0.00501648  0.48954976     0.87400
C94         C  0.42132889  0.00404853  0.99423571     0.87600
O95         O  0.50129436  0.96923466  0.31186523    -0.74700
O96         O  0.49540129  0.96877703  0.16741144    -0.74700
O97         O  0.55744626  0.96642951  0.22835067    -0.74800
O98         O  0.43877342  0.97177499  0.25134202    -0.74800
O99         O  0.43863841  0.04429849  0.25597761    -0.74800
O100        O  0.55754556  0.03894560  0.23350159    -0.74700
O101        O  0.49551457  0.04122660  0.17246182    -0.74700
O102        O  0.50109616  0.04169594  0.31720067    -0.74800
Ni103      Ni  0.49813791  0.96657702  0.23954961     1.25400
Ni104      Ni  0.49817116  0.04407862  0.24498104     1.25400
C105        C  0.50207808  0.00547183  0.33861107     0.87500
C106        C  0.49531645  0.00485861  0.14573927     0.87400
C107        C  0.57716401  0.00185996  0.22681116     0.87400
C108        C  0.41902121  0.00879516  0.25795023     0.87600
C109        C  0.28901132  0.93409162  0.30098776    -0.18100
C110        C  0.24589151  0.93305115  0.30458050    -0.20300
C111        C  0.22214655  0.97008601  0.29599164     0.20400
C112        C  0.24189866  0.00900314  0.28503623    -0.03200
C113        C  0.28559906  0.01002923  0.28129012    -0.06300
C114        C  0.30919092  0.97215336  0.28854889     0.20700
C115        C  0.30567764  0.04843833  0.26876267     0.18800
C116        C  0.28172105  0.08575940  0.26124409    -0.17700
C117        C  0.23841656  0.08467458  0.26468363    -0.20000
C118        C  0.21812395  0.04630388  0.27595874     0.20300
C119        C  0.17480220  0.04387340  0.27612760    -0.33000
C120        C  0.15531373  0.00432264  0.28441603     0.02400
C121        C  0.17918034  0.96813461  0.29588654    -0.24300
C122        C  0.35253816  0.97249385  0.28185108    -0.28900
C123        C  0.37302951  0.01017589  0.26791695     0.06700
C124        C  0.34926840  0.04841208  0.26260936    -0.27600
H125        H  0.30662392  0.90482117  0.30706140     0.11400
H126        H  0.23112897  0.90295542  0.31317847     0.12500
H127        H  0.29652408  0.11561132  0.25171980     0.11600
H128        H  0.22083118  0.11366825  0.25760084     0.10900
H129        H  0.15671940  0.07177131  0.26676712     0.16200
H130        H  0.16438775  0.93763493  0.30258762     0.12100
H131        H  0.37036210  0.94305465  0.28682717     0.15000
H132        H  0.36462949  0.07773474  0.25217495     0.14800
C133        C  0.70981855  0.07632951  0.20440643    -0.18100
C134        C  0.75274017  0.07583450  0.20501810    -0.20300
C135        C  0.77488412  0.03664107  0.20920109     0.20400
C136        C  0.75397389  0.99721456  0.21047693    -0.03200
C137        C  0.71051241  0.99773511  0.20994458    -0.06300
C138        C  0.68830345  0.03763829  0.20806174     0.20700
C139        C  0.68915810  0.95866757  0.21352573     0.18800
C140        C  0.71166393  0.91920919  0.21539730    -0.17700
C141        C  0.75473673  0.91870668  0.21608202    -0.20000
C142        C  0.77617791  0.95764864  0.21477383     0.20300
C143        C  0.81887927  0.95817400  0.22034558    -0.33000
C144        C  0.83913290  0.99797050  0.22254058     0.01000
C145        C  0.81717046  0.03665700  0.21488243    -0.24300
C146        C  0.64491659  0.03847481  0.21186969    -0.28900
C147        C  0.62315199  0.99998091  0.21790662     0.06700
C148        C  0.64566086  0.95998584  0.21713994    -0.27600
H149        H  0.69333516  0.10717761  0.20236858     0.11400
H150        H  0.76849607  0.10633471  0.20355970     0.12500
H151        H  0.69581456  0.88881732  0.21772966     0.11600
H152        H  0.77112919  0.88796732  0.21903273     0.10900
H153        H  0.83557484  0.92825184  0.22624789     0.16200
H154        H  0.83272892  0.06735816  0.21578825     0.12100
H155        H  0.62808358  0.06938379  0.21157386     0.15000
H156        H  0.62934418  0.93001311  0.22116998     0.14800
C157        C  0.29878381  0.93237458  0.93625623    -0.18100
C158        C  0.25648301  0.93278595  0.93054305    -0.20300
C159        C  0.23055987  0.96845832  0.95009276     0.20400
C160        C  0.24744000  0.00396650  0.97604005    -0.03200
C161        C  0.29028835  0.00380037  0.98129028    -0.06300
C162        C  0.31600121  0.96769738  0.96155146     0.20700
C163        C  0.30744353  0.03900045  0.50930536     0.18800
C164        C  0.28128960  0.07400284  0.53045397    -0.17700
C165        C  0.23871226  0.07376285  0.52626097    -0.20000
C166        C  0.22155790  0.03883913  0.50014701     0.20300
C167        C  0.17879895  0.03809677  0.49613267    -0.33000
C168        C  0.16166015  0.00343346  0.96738261     0.01000
C169        C  0.18796600  0.96883991  0.94504869    -0.24300
C170        C  0.35846115  0.96758677  0.96731479    -0.28900
C171        C  0.37592202  0.00356590  0.99147202     0.06700
C172        C  0.35025229  0.03896367  0.51329554    -0.27600
H173        H  0.31806197  0.90440364  0.92078768     0.11400
H174        H  0.24398533  0.90500728  0.91107509     0.12500
H175        H  0.29373959  0.10150102  0.55050985     0.11600
H176        H  0.21919761  0.10100542  0.54333311     0.10900
H177        H  0.15861945  0.06452048  0.51405137     0.16200
H178        H  0.17501088  0.94135854  0.92547308     0.12100
H179        H  0.37813673  0.93988368  0.95183724     0.15000
H180        H  0.36338636  0.06655130  0.53243184     0.14800
C181        C  0.74118140  0.06438954  0.07269976    -0.18100
C182        C  0.69970943  0.06710585  0.06302167    -0.20300
C183        C  0.68355387  0.03516530  0.03146056     0.20400
C184        C  0.70977904  0.00082874  0.50986616    -0.03200
C185        C  0.75185742  0.99826591  0.51951055    -0.06300
C186        C  0.76749383  0.02978007  0.05091082     0.20700
C187        C  0.77780289  0.96285272  0.49824276     0.18800
C188        C  0.76126368  0.93000173  0.46814068    -0.17700
C189        C  0.71948830  0.93215490  0.45931176    -0.20000
C190        C  0.69339271  0.96738994  0.48004354     0.20300
C191        C  0.65113221  0.96942185  0.47226497    -0.33000
C192        C  0.62510315  0.00492528  0.49310900     0.01000
C193        C  0.64166106  0.03728697  0.02251985    -0.24300
C194        C  0.80942814  0.02740191  0.05989525    -0.28900
C195        C  0.83654307  0.99449130  0.53676624     0.06700
C196        C  0.81992141  0.96135101  0.50666918    -0.27600
H197        H  0.75276829  0.08962010  0.09705584     0.11400
H198        H  0.68017197  0.09416466  0.08051446     0.12500
H199        H  0.78065825  0.90253780  0.45142806     0.11600
H200        H  0.70758512  0.90619856  0.43621247     0.10900
H201        H  0.63838465  0.94317061  0.45040958     0.16200
H202        H  0.62168029  0.06387726  0.04040040     0.12100
H203        H  0.82139093  0.05266945  0.08392913     0.15000
H204        H  0.83994349  0.93464189  0.48916897     0.14800
C205        C  0.92331051  0.76493747  0.24852478    -0.18100
C206        C  0.92379575  0.71934413  0.24614276    -0.20300
C207        C  0.95680047  0.69573100  0.26262565     0.20400
C208        C  0.98854311  0.71829437  0.28411759    -0.03200
C209        C  0.98792467  0.76431363  0.28678063    -0.06300
C210        C  0.95579188  0.78765595  0.26748530     0.20700
C211        C  0.02077225  0.78677921  0.30587815     0.18800
C212        C  0.05236777  0.76327387  0.32539128    -0.17700
C213        C  0.05297672  0.71767825  0.32276914    -0.20000
C214        C  0.02197512  0.69489630  0.30066383     0.20300
C215        C  0.02453977  0.64926015  0.29325038    -0.33000
C216        C  0.99379598  0.62669325  0.27022541     0.01000
C217        C  0.95939493  0.65004433  0.25637285    -0.24300
C218        C  0.95830248  0.83285075  0.26398710    -0.28900
C219        C  0.99320691  0.85467819  0.27798575     0.06700
C220        C  0.02305575  0.83188122  0.30166042    -0.27600
H221        H  0.89826651  0.78236078  0.23386854     0.11400
H222        H  0.89899956  0.70252136  0.22994408     0.12500
H223        H  0.07747595  0.78007510  0.34092306     0.11600
H224        H  0.07841805  0.70021883  0.33657220     0.10900
H225        H  0.05064297  0.63129740  0.30496155     0.16200
H226        H  0.93543485  0.63274656  0.23893781     0.12100
H227        H  0.93503504  0.85015346  0.24599453     0.15000
H228        H  0.04969370  0.84862243  0.31339181     0.14800
C229        C  0.07692570  0.22320042  0.22758058    -0.18100
C230        C  0.07975593  0.26837937  0.22542322    -0.20300
C231        C  0.04509541  0.29417617  0.21722342     0.20400
C232        C  0.00812471  0.27380978  0.20742472    -0.03200
C233        C  0.00524633  0.22825705  0.20970083    -0.06300
C234        C  0.03937160  0.20310710  0.22168681     0.20700
C235        C  0.96734773  0.20843935  0.20356354     0.18800
C236        C  0.93375173  0.23363880  0.19099344    -0.17700
C237        C  0.93667208  0.27870817  0.18844932    -0.20000
C238        C  0.97315665  0.29922375  0.19866188     0.20300
C239        C  0.97445019  0.34477188  0.20323430    -0.33000
C240        C  0.01007060  0.36545614  0.21697487     0.01000
C241        C  0.04596228  0.33996868  0.22153001    -0.24300
C242        C  0.03446605  0.15915832  0.23131916    -0.28900
C243        C  0.99553938  0.14045155  0.23053824     0.06700
C244        C  0.96280164  0.16462107  0.21375580    -0.27600
H245        H  0.10360480  0.20426189  0.23612317     0.11400
H246        H  0.10858101  0.28333357  0.23223760     0.12500
H247        H  0.90464308  0.21880723  0.18529880     0.11600
H248        H  0.90978657  0.29774636  0.18071855     0.10900
H249        H  0.94700789  0.36414491  0.19812555     0.16200
H250        H  0.07377785  0.35563202  0.23117116     0.12100
H251        H  0.06006850  0.14071406  0.24348916     0.15000
H252        H  0.93290575  0.15027594  0.21188370     0.14800
C253        C  0.08196067  0.76270939  0.96424278    -0.18100
C254        C  0.08161776  0.71756385  0.96916622    -0.20300
C255        C  0.04410145  0.69604319  0.97517715     0.20400
C256        C  0.00606511  0.72025713  0.47823755    -0.03200
C257        C  0.00649256  0.76597880  0.47328704    -0.06300
C258        C  0.04478567  0.78741921  0.96529917     0.20700
C259        C  0.96897551  0.79047664  0.47453339     0.18800
C260        C  0.93146975  0.76900133  0.48013701    -0.17700
C261        C  0.93104934  0.72388387  0.48484879    -0.20000
C262        C  0.96813311  0.69914815  0.48416345     0.20300
C263        C  0.96784707  0.65375925  0.48920164    -0.33000
C264        C  0.00503848  0.62872266  0.48839336     0.01000
C265        C  0.04342765  0.65070358  0.98072690    -0.24300
C266        C  0.04476091  0.83292135  0.96089739    -0.28900
C267        C  0.00706132  0.85760844  0.46401416     0.06700
C268        C  0.96948210  0.83592835  0.47017692    -0.27600
H269        H  0.11138450  0.77834178  0.95978489     0.11400
H270        H  0.11078363  0.69947288  0.96841810     0.12500
H271        H  0.90233089  0.78715451  0.48095740     0.11600
H272        H  0.90158792  0.70832164  0.48917047     0.10900
H273        H  0.93852370  0.63790201  0.49351053     0.16200
H274        H  0.07238324  0.63225790  0.98022749     0.12100
H275        H  0.07398339  0.84897924  0.95651373     0.15000
H276        H  0.94047784  0.85437465  0.47113033     0.14800
C277        C  0.07553240  0.26995963  0.01483270    -0.18100
C278        C  0.07449310  0.22508584  0.02167017    -0.20300
C279        C  0.03663987  0.20452025  0.03020573     0.20400
C280        C  0.99952447  0.22993485  0.03277439    -0.03200
C281        C  0.00057002  0.27532603  0.02560088    -0.06300
C282        C  0.03874554  0.29538969  0.01613003     0.20700
C283        C  0.96337863  0.30046896  0.02740857     0.18800
C284        C  0.92556715  0.28026623  0.03745641    -0.17700
C285        C  0.92454067  0.23556680  0.04466594    -0.20000
C286        C  0.96129670  0.20996349  0.04195167     0.20300
C287        C  0.96033130  0.16476450  0.04786287    -0.33000
C288        C  0.99708413  0.13855346  0.04450095     0.01000
C289        C  0.03523319  0.15910178  0.03586636    -0.24300
C290        C  0.03945769  0.34031021  0.00777064    -0.28900
C291        C  0.00240951  0.36570768  0.00844227     0.06700
C292        C  0.96451859  0.34521522  0.01882628    -0.27600
H293        H  0.10512477  0.28499058  0.51327821     0.11400
H294        H  0.10344136  0.20666445  0.52531894     0.12500
H295        H  0.89665625  0.29900549  0.03936372     0.11600
H296        H  0.89485690  0.22091542  0.05197100     0.10900
H297        H  0.93067772  0.14992490  0.05468488     0.16200
H298        H  0.06407499  0.13971510  0.53744552     0.12100
H299        H  0.06893365  0.35543481  0.00061491     0.15000
H300        H  0.93571754  0.36410785  0.02029472     0.14800
O301        O  0.03777894  0.50006300  0.56430807    -0.74700
O302        O  0.03809950  0.49043245  0.91821719    -0.74700
O303        O  0.03916759  0.55811622  0.98917302    -0.74800
O304        O  0.03743643  0.43204861  0.49393723    -0.74800
O305        O  0.96869717  0.43541280  0.50225196    -0.74800
O306        O  0.97041807  0.56167911  0.99777964    -0.74700
O307        O  0.96937353  0.49380813  0.92701855    -0.74700
O308        O  0.96903375  0.50316935  0.57270105    -0.74800
Ni309      Ni  0.04069922  0.49527860  0.99090572     1.25400
Ni310      Ni  0.96682124  0.49829342  0.50017542     1.25400
C311        C  0.00333163  0.50228039  0.59274577     0.87500
C312        C  0.00366667  0.49148673  0.89833360     0.87400
C313        C  0.00506253  0.58068141  0.99179875     0.87400
C314        C  0.00287331  0.41302968  0.50071450     0.87600
O315        O  0.03775867  0.49325752  0.81359395    -0.74700
O316        O  0.03733909  0.50271767  0.66940727    -0.74700
O317        O  0.03270874  0.56044710  0.75317529    -0.74800
O318        O  0.04183943  0.43555065  0.73003288    -0.74800
O319        O  0.97310269  0.43379264  0.73833023    -0.74800
O320        O  0.96399828  0.55771246  0.75971896    -0.74700
O321        O  0.96875802  0.49997565  0.67713515    -0.74700
O322        O  0.96912592  0.49157639  0.82173550    -0.74800
Ni323      Ni  0.03983730  0.49812463  0.74127542     1.25400
Ni324      Ni  0.96640222  0.49562580  0.74959538     1.25400
C325        C  0.00350072  0.49165435  0.84182981     0.87500
C326        C  0.00310965  0.50212079  0.64915181     0.87400
C327        C  0.99678012  0.57954101  0.76067136     0.87400
C328        C  0.00861417  0.41420828  0.72924057     0.87600
O329        O  0.10193871  0.98149769  0.92930164    -0.81200
O330        O  0.90631293  0.97487162  0.00577073    -0.65900
O331        O  0.01777093  0.01013392  0.96439301    -1.12500
C332        C  0.02617892  0.99227568  0.62197198     1.05700
O333        O  0.89612977  0.01820924  0.57625956    -0.79100
O334        O  0.96026306  0.07399689  0.56493574    -0.66600
Ni335      Ni  0.04698820  0.97597528  0.90847778     1.34900
C336        C  0.99528711  0.08956700  0.55168413     0.84500
O337        O  0.94040650  0.00173039  0.92237006    -0.79600
O338        O  0.99485351  0.96942843  0.88478266    -0.89900
C339        C  0.88206305  0.99531810  0.03988269     0.84000
O340        O  0.04125641  0.92295010  0.94178698    -0.68100
O341        O  0.00316151  0.02650196  0.62496249    -0.87400
C342        C  0.00738010  0.90608448  0.95711209     0.84900
C343        C  0.97038236  0.00248237  0.89024536     1.06400
H344        H  0.97927746  0.95510870  0.55361921     0.38200
O345        O  0.98045185  0.98533985  0.54614449    -1.10000
O346        O  0.02840226  0.06514539  0.54505374    -0.66700
Ni347      Ni  0.03777757  0.00189281  0.52712818     1.26300
O348        O  0.97342588  0.92903254  0.96645924    -0.66900
O349        O  0.05636756  0.98964893  0.58942801    -0.79200
C350        C  0.11649475  0.00068079  0.46835583     0.84200
O351        O  0.09318395  0.01654697  0.50628050    -0.66400
Ni352      Ni  0.95106284  0.02191362  0.59960972     1.27400
Ni353      Ni  0.96081206  0.99172193  0.98396235     1.26100
H354        H  0.01806815  0.04063328  0.95821168     0.38800
O355        O  0.10374743  0.96147381  0.75512943    -0.81200
O356        O  0.90899825  0.97276455  0.72610166    -0.65900
O357        O  0.02709851  0.99221575  0.72526413    -1.12500
C358        C  0.98427156  0.04475887  0.87560479     1.05700
O359        O  0.88752272  0.03738404  0.76381732    -0.79100
O360        O  0.94994300  0.09220679  0.76761098    -0.66600
Ni361      Ni  0.06637856  0.94445714  0.70675373     1.34900
C362        C  0.98759839  0.10009643  0.75475594     0.84500
O363        O  0.97251947  0.95466333  0.65802260    -0.79600
O364        O  0.03266976  0.92427590  0.65667691    -0.89900
C365        C  0.88114473  0.00274819  0.73761383     0.84000
O366        O  0.03981503  0.90767515  0.75361632    -0.68100
O367        O  0.95863718  0.07220579  0.86281319    -0.87400
C368        C  0.00188289  0.89843979  0.76083751     0.84900
C369        C  0.00945200  0.95213266  0.63988150     1.06400
H370        H  0.95732395  0.98163097  0.80830043     0.38200
O371        O  0.96509492  0.00614800  0.78984068    -1.10000
O372        O  0.01802185  0.07562539  0.76388545    -0.66700
Ni373      Ni  0.02444176  0.01869531  0.78998643     1.26300
O374        O  0.97246891  0.92263058  0.74835615    -0.66900
O375        O  0.02040361  0.04584140  0.85551871    -0.79200
C376        C  0.11122008  0.99846090  0.77569859     0.84200
O377        O  0.08312107  0.02835421  0.78599240    -0.66400
Ni378      Ni  0.92504159  0.05278455  0.81227663     1.27400
Ni379      Ni  0.96779681  0.98075027  0.72421501     1.26100
H380        H  0.03550577  0.01589016  0.70535425     0.38800
O381        O  0.49879913  0.96825386  0.56178742    -0.74700
O382        O  0.50418794  0.96829071  0.91585705    -0.74700
O383        O  0.56143771  0.96868050  0.48545590    -0.74800
O384        O  0.44280265  0.96792679  0.49150012    -0.74800
O385        O  0.43938132  0.04049191  0.99775920    -0.74800
O386        O  0.55832245  0.04063192  0.99275429    -0.74700
O387        O  0.50179710  0.04080071  0.92205303    -0.74700
O388        O  0.49561204  0.04076186  0.56813954    -0.74800
Ni389      Ni  0.50209495  0.96593992  0.48844911     1.25400
Ni390      Ni  0.49869128  0.04319150  0.99525397     1.25400
C391        C  0.49636540  0.00444799  0.58922816     0.87500
C392        C  0.50288512  0.00463007  0.89478397     0.87400
C393        C  0.57929231  0.00431237  0.98942957     0.87400
C394        C  0.42163921  0.00401530  0.49488806     0.87600
O395        O  0.50080227  0.96854215  0.81179736    -0.74700
O396        O  0.49539166  0.96837535  0.66727719    -0.74700
O397        O  0.55720605  0.96597434  0.72857956    -0.74800
O398        O  0.43837303  0.97114191  0.75095919    -0.74800
O399        O  0.43824809  0.04366050  0.75578181    -0.74800
O400        O  0.55720258  0.03849599  0.73381718    -0.74700
O401        O  0.49539936  0.04083420  0.67256728    -0.74700
O402        O  0.50060128  0.04100704  0.81722878    -0.74800
Ni403      Ni  0.49784305  0.96601705  0.73944874     1.25400
Ni404      Ni  0.49781697  0.04352152  0.74505607     1.25400
C405        C  0.50162986  0.00476015  0.83856705     0.87500
C406        C  0.49538011  0.00452559  0.64573128     0.87400
C407        C  0.57688364  0.00144902  0.72718694     0.87400
C408        C  0.41859335  0.00816611  0.75757592     0.87600
C409        C  0.28816337  0.93440384  0.80240685    -0.18100
C410        C  0.24499643  0.93375187  0.80686439    -0.20300
C411        C  0.22134482  0.97088460  0.79839557     0.20400
C412        C  0.24126636  0.00954041  0.78672361    -0.03200
C413        C  0.28502838  0.01020026  0.78219431    -0.06300
C414        C  0.30850963  0.97219680  0.78928535     0.20700
C415        C  0.30525679  0.04835012  0.76901565     0.18800
C416        C  0.28140331  0.08577778  0.76158293    -0.17700
C417        C  0.23805124  0.08501939  0.76566956    -0.20000
C418        C  0.21758315  0.04688814  0.77757720     0.20300
C419        C  0.17418556  0.04465899  0.77810374    -0.33000
C420        C  0.15452415  0.00526873  0.78692060     0.02400
C421        C  0.17830229  0.96918160  0.79884843    -0.24300
C422        C  0.35188699  0.97216401  0.78185185    -0.28900
C423        C  0.37253542  0.00965749  0.76752905     0.06700
C424        C  0.34886987  0.04798611  0.76223700    -0.27600
H425        H  0.30566880  0.90503789  0.80838578     0.11400
H426        H  0.23010859  0.90383920  0.81596024     0.12500
H427        H  0.29631562  0.11544937  0.75158125     0.11600
H428        H  0.22055956  0.11406369  0.75854748     0.10900
H429        H  0.15619425  0.07250812  0.76844235     0.16200
H430        H  0.16339220  0.93883321  0.80602928     0.12100
H431        H  0.36960743  0.94264214  0.78676668     0.15000
H432        H  0.36431908  0.07716203  0.75145513     0.14800
C433        C  0.70936795  0.07606527  0.70185903    -0.18100
C434        C  0.75234063  0.07580508  0.70203745    -0.20300
C435        C  0.77464285  0.03691152  0.70724751     0.20400
C436        C  0.75378806  0.99751796  0.71007872    -0.03200
C437        C  0.71028077  0.99780799  0.71003158    -0.06300
C438        C  0.68794197  0.03744492  0.70701844     0.20700
C439        C  0.68903183  0.95880371  0.71512346     0.18800
C440        C  0.71165567  0.91961114  0.71813732    -0.17700
C441        C  0.75475920  0.91933863  0.71831643    -0.20000
C442        C  0.77611640  0.95824689  0.71538236     0.20300
C443        C  0.81888667  0.95905962  0.72033612    -0.33000
C444        C  0.83914611  0.99886389  0.72100948     0.01000
C445        C  0.81704247  0.03722936  0.71240836    -0.24300
C446        C  0.64453549  0.03810892  0.71109415    -0.28900
C447        C  0.62289093  0.99969883  0.71843517     0.06700
C448        C  0.64553010  0.95993722  0.71895069    -0.27600
H449        H  0.69278529  0.10670350  0.69894021     0.11400
H450        H  0.76802352  0.10627606  0.69939025     0.12500
H451        H  0.69588856  0.88927083  0.72168018     0.11600
H452        H  0.77125950  0.88882742  0.72211342     0.10900
H453        H  0.83565868  0.92940205  0.72703229     0.16200
H454        H  0.83256581  0.06794601  0.71220456     0.12100
H455        H  0.62759491  0.06882592  0.70982568     0.15000
H456        H  0.62931130  0.93003694  0.72407095     0.14800
C457        C  0.29911531  0.93281264  0.43671596    -0.18100
C458        C  0.25686159  0.93338850  0.43082686    -0.20300
C459        C  0.23086832  0.96871059  0.45125124     0.20400
C460        C  0.24761899  0.00374321  0.47817442    -0.03200
C461        C  0.29045394  0.00348751  0.48346587    -0.06300
C462        C  0.31623558  0.96771109  0.46286189     0.20700
C463        C  0.30733096  0.03967582  0.00640402     0.18800
C464        C  0.28126678  0.07503542  0.02668466    -0.17700
C465        C  0.23870544  0.07475426  0.02248606    -0.20000
C466        C  0.22147024  0.03941246  0.99724426     0.20300
C467        C  0.17870152  0.03861465  0.99342877    -0.33000
C468        C  0.16190305  0.00333594  0.46913279     0.01000
C469        C  0.18832911  0.96917743  0.44604258    -0.24300
C470        C  0.35871828  0.96759632  0.46836055    -0.28900
C471        C  0.37617172  0.00334482  0.49291653     0.06700
C472        C  0.35007887  0.03957522  0.01076011    -0.27600
H473        H  0.31846059  0.90511327  0.42057211     0.11400
H474        H  0.24445335  0.90601173  0.41052400     0.12500
H475        H  0.29376468  0.10282114  0.04615609     0.11600
H476        H  0.21925131  0.10226337  0.03894953     0.10900
H477        H  0.15861232  0.06534530  0.01076557     0.16200
H478        H  0.17550310  0.94202907  0.42572392     0.12100
H479        H  0.37844682  0.94017381  0.45215599     0.15000
H480        H  0.36320585  0.06738733  0.02947296     0.14800
C481        C  0.74202877  0.06678910  0.57032789    -0.18100
C482        C  0.70059014  0.06952917  0.56045307    -0.20300
C483        C  0.68409584  0.03673398  0.53034334     0.20400
C484        C  0.70960581  0.00015316  0.00927961    -0.03200
C485        C  0.75173164  0.99762538  0.01875569    -0.06300
C486        C  0.76797472  0.03130633  0.55015388     0.20700
C487        C  0.77806429  0.96314643  0.99586231     0.18800
C488        C  0.76188311  0.93122065  0.96415295    -0.17700
C489        C  0.72005273  0.93330806  0.95546769    -0.20000
C490        C  0.69353302  0.96757078  0.97795536     0.20300
C491        C  0.65117833  0.96948685  0.97044650    -0.33000
C492        C  0.62482886  0.00414997  0.99295031     0.01000
C493        C  0.64222714  0.03886883  0.52120919    -0.24300
C494        C  0.80990407  0.02887319  0.55919260    -0.28900
C495        C  0.83644730  0.99396236  0.03602590     0.06700
C496        C  0.82018330  0.96167023  0.00436397    -0.27600
H497        H  0.75387275  0.09266441  0.59357104     0.11400
H498        H  0.68134628  0.09728024  0.57665528     0.12500
H499        H  0.78159017  0.90451111  0.94610567     0.11600
H500        H  0.70843648  0.90805345  0.93113328     0.10900
H501        H  0.63863524  0.94387105  0.94743854     0.16200
H502        H  0.62250443  0.06614509  0.53782682     0.12100
H503        H  0.82219557  0.05479034  0.58200738     0.15000
H504        H  0.84047488  0.93568411  0.98567233     0.14800
C505        C  0.92293742  0.76572038  0.74848184    -0.18100
C506        C  0.92343571  0.72012791  0.74574869    -0.20300
C507        C  0.95609381  0.69642508  0.76284400     0.20400
C508        C  0.98745431  0.71888701  0.78526807    -0.03200
C509        C  0.98687128  0.76490837  0.78817399    -0.06300
C510        C  0.95508970  0.78834427  0.76833939     0.20700
C511        C  0.01945373  0.78728877  0.80802514     0.18800
C512        C  0.05066831  0.76366761  0.82811468    -0.17700
C513        C  0.05116794  0.71806830  0.82541093    -0.20000
C514        C  0.02051936  0.69539290  0.80247683     0.20300
C515        C  0.02314526  0.64978082  0.79479183    -0.33000
C516        C  0.99286856  0.62735279  0.77073009     0.01000
C517        C  0.95876420  0.65075886  0.75625626    -0.24300
C518        C  0.95766176  0.83355797  0.76518852    -0.28900
C519        C  0.99236242  0.85533569  0.77990823     0.06700
C520        C  0.02188621  0.83242180  0.80398626    -0.27600
H521        H  0.89817868  0.78322707  0.73336973     0.11400
H522        H  0.89893954  0.70338503  0.72881891     0.12500
H523        H  0.07556997  0.78038458  0.84420666     0.11600
H524        H  0.07630639  0.70052583  0.83973494     0.10900
H525        H  0.04897172  0.63173014  0.80702955     0.16200
H526        H  0.93514826  0.63353199  0.73806848     0.12100
H527        H  0.93466808  0.85092434  0.74682899     0.15000
H528        H  0.04838885  0.84910001  0.81621395     0.14800
C529        C  0.07745677  0.22426004  0.72833865    -0.18100
C530        C  0.08026866  0.26944429  0.72613396    -0.20300
C531        C  0.04557752  0.29521306  0.71796342     0.20400
C532        C  0.00860727  0.27482129  0.70822411    -0.03200
C533        C  0.00577538  0.22929103  0.71044297    -0.06300
C534        C  0.03990771  0.20414523  0.72244461     0.20700
C535        C  0.96788836  0.20948679  0.70423596     0.18800
C536        C  0.93422068  0.23465271  0.69185304    -0.17700
C537        C  0.93706967  0.27970386  0.68946621    -0.20000
C538        C  0.97357633  0.30018779  0.69956827     0.20300
C539        C  0.97481597  0.34567914  0.70410769    -0.33000
C540        C  0.01043080  0.36638541  0.71770536     0.01000
C541        C  0.04638939  0.34100184  0.72222833    -0.24300
C542        C  0.03496885  0.16019277  0.73209033    -0.28900
C543        C  0.99603355  0.14154256  0.73111386     0.06700
C544        C  0.96337282  0.16569099  0.71422465    -0.27600
H545        H  0.10414452  0.20533523  0.73687982     0.11400
H546        H  0.10909223  0.28442411  0.73290176     0.12500
H547        H  0.90510784  0.21980436  0.68621787     0.11600
H548        H  0.91013001  0.29874445  0.68190966     0.10900
H549        H  0.94732643  0.36500000  0.69904912     0.16200
H550        H  0.07419142  0.35673539  0.73179514     0.12100
H551        H  0.06048946  0.14172005  0.74440780     0.15000
H552        H  0.93349076  0.15134355  0.71219870     0.14800
C553        C  0.08150960  0.76230715  0.46605561    -0.18100
C554        C  0.08108166  0.71717797  0.47112429    -0.20300
C555        C  0.04352613  0.69574426  0.47729992     0.20400
C556        C  0.00660622  0.72042659  0.97574746    -0.03200
C557        C  0.00694662  0.76613951  0.97091761    -0.06300
C558        C  0.04438077  0.78712010  0.46718547     0.20700
C559        C  0.96938221  0.79051210  0.97195891     0.18800
C560        C  0.93193168  0.76890689  0.97695949    -0.17700
C561        C  0.93159856  0.72378998  0.98155710    -0.20000
C562        C  0.96871448  0.69922345  0.98138637     0.20300
C563        C  0.96848603  0.65393426  0.98689239    -0.33000
C564        C  0.00568575  0.62909263  0.98687411     0.01000
C565        C  0.04279741  0.65033256  0.48241840    -0.24300
C566        C  0.04446026  0.83258475  0.46236618    -0.28900
C567        C  0.00730203  0.85779787  0.96250286     0.06700
C568        C  0.96978359  0.83598786  0.96806700    -0.27600
H569        H  0.11097307  0.77783540  0.46133844     0.11400
H570        H  0.11022252  0.69900673  0.47019887     0.12500
H571        H  0.90277130  0.78697112  0.97751663     0.11600
H572        H  0.90217908  0.70811864  0.98555098     0.10900
H573        H  0.93918776  0.63802030  0.99111013     0.16200
H574        H  0.07174443  0.63179644  0.48151646     0.12100
H575        H  0.07373782  0.84849639  0.45758538     0.15000
H576        H  0.94074688  0.85435597  0.96889638     0.14800
C577        C  0.07546432  0.26993268  0.51860397    -0.18100
C578        C  0.07450203  0.22505861  0.52550989    -0.20300
C579        C  0.03670429  0.20409684  0.53218999     0.20400
C580        C  0.99953614  0.22910279  0.53270032    -0.03200
C581        C  0.00051329  0.27449278  0.52546110    -0.06300
C582        C  0.03866158  0.29497498  0.51796487     0.20700
C583        C  0.96329200  0.29922472  0.52527535     0.18800
C584        C  0.92548389  0.27858681  0.53323575    -0.17700
C585        C  0.92451890  0.23389589  0.54049325    -0.20000
C586        C  0.96133624  0.20873258  0.53993988     0.20300
C587        C  0.96046518  0.16358822  0.54617482    -0.33000
C588        C  0.99729347  0.13780797  0.54502418     0.01000
C589        C  0.03540529  0.15870078  0.53809491    -0.24300
C590        C  0.03933743  0.33992037  0.50963200    -0.28900
C591        C  0.00228529  0.36494427  0.50844370     0.06700
C592        C  0.96440084  0.34400687  0.51683013    -0.27600
H593        H  0.10522076  0.28470608  0.00800032     0.11400
H594        H  0.10340493  0.20637155  0.01991699     0.12500
H595        H  0.89653837  0.29698789  0.53351037     0.11600
H596        H  0.89484720  0.21891451  0.54619985     0.10900
H597        H  0.93083760  0.14844276  0.55152232     0.16200
H598        H  0.06386431  0.13980696  0.03356727     0.12100
H599        H  0.06878995  0.35537263  0.50403090     0.15000
H600        H  0.93557260  0.36257278  0.51678508     0.14800
loop_ 
_geom_bond_atom_site_label_1 
_geom_bond_atom_site_label_2 
_geom_bond_distance 
_geom_bond_site_symmetry_2 
_ccdc_geom_bond_type 
O1           C11   1.289       .  A
O1         Ni309   1.959   1_554  S
O2           C12   1.290       .  A
O2           Ni9   1.963       .  S
O3           C13   1.285       .  A
O3           Ni9   1.937       .  S
O4           C14   1.285   1_556  A
O4         Ni309   1.939       .  S
O5           C14   1.286   1_655  A
O5          Ni10   1.937       .  S
O6           C13   1.286   1_655  A
O6         Ni310   1.940       .  S
O7           C12   1.288   1_655  A
O7         Ni310   1.960       .  S
O8           C11   1.288   1_655  A
O8          Ni10   1.955       .  S
Ni9         O301   1.958       .  S
Ni9         O304   1.940       .  S
Ni9        Ni310   2.376   1_455  S
Ni10        O306   1.938   1_554  S
Ni10        O307   1.958   1_554  S
Ni10       Ni309   2.376   1_654  S
C11          C26   1.517       .  S
C12          C25   1.523       .  S
C13         C264   1.506       .  S
C14         C291   1.507       .  S
O15          C25   1.288       .  A
O15         Ni23   1.957       .  S
O16          C26   1.288       .  A
O16         Ni23   1.958       .  S
O17          C27   1.284   1_455  A
O17         Ni23   1.926       .  S
O18          C28   1.283       .  A
O18         Ni23   1.929       .  S
O19          C28   1.281   1_655  A
O19         Ni24   1.911       .  S
O20          C27   1.279       .  A
O20         Ni24   1.910       .  S
O21          C26   1.289   1_655  A
O21         Ni24   1.957       .  S
O22          C25   1.291   1_655  A
O22         Ni24   1.965       .  S
Ni23        Ni24   2.380   1_455  S
C27         C216   1.478       .  S
C28         C240   1.484       .  S
O29         C350   1.275   1_565  A
O29         Ni35   1.937       .  S
O30          C39   1.268       .  A
O30         Ni53   1.910       .  S
O31         Ni35   1.925   1_545  S
O31         Ni53   1.982   1_445  S
O31        Ni347   1.866       .  S
O31          H54   0.964       .  S
C32          O49   1.245       .  A
C32          O41   1.267   1_565  A
C32          C69   1.457       .  S
O33         C339   1.280   1_545  A
O33         Ni52   1.959       .  S
O34          C36   1.276       .  A
O34         Ni52   1.924       .  S
Ni35         O38   1.883   1_455  S
Ni35         O40   1.919       .  S
C36          O46   1.286   1_655  A
C36         C288   1.510       .  S
O37          C43   1.239       .  A
O37         Ni53   1.889   1_545  S
O38          C43   1.264   1_565  A
C39         O333   1.279   1_565  A
C39         C195   1.499       .  S
O40          C42   1.275       .  A
O41         Ni52   1.896   1_455  S
C42          O48   1.288   1_455  A
C42         C267   1.505       .  S
C43          C58   1.456       .  S
H44          O45   0.966       .  S
O45         Ni47   1.973   1_665  S
O45         Ni52   1.921   1_565  S
O45        Ni353   1.850   1_554  S
O46         Ni47   1.980       .  S
Ni47         O51   1.911       .  S
Ni47         O49   1.896   1_545  S
Ni47        O331   1.867   1_554  S
O48         Ni53   1.979       .  S
C50          O51   1.269   1_556  A
C50         O329   1.274   1_545  A
C50         C168   1.484       .  S
Ni53        O345   1.852       .  S
O55          C76   1.272       .  A
O55         Ni61   1.925       .  S
O56          C65   1.274   1_565  A
O56         Ni79   1.932       .  S
O57         Ni61   1.924       .  S
O57         Ni79   1.972   1_455  S
O57         Ni73   1.862   1_565  S
O57          H80   0.963   1_565  S
C58          O75   1.244   1_655  A
C58          O67   1.257       .  A
O59          C65   1.271       .  A
O59         Ni78   1.918       .  S
O60          C62   1.274       .  A
O60         Ni78   1.908       .  S
Ni61         O64   1.904       .  S
Ni61         O66   1.908       .  S
C62          O72   1.281   1_655  A
C62         C243   1.485       .  S
O63          C69   1.249   1_655  A
O63         Ni79   1.893       .  S
O64          C69   1.261       .  A
C65         C144   1.485   1_545  S
O66          C68   1.273       .  A
O67         Ni78   1.901       .  S
C68          O74   1.280   1_455  A
C68         C219   1.483   1_455  S
H70          O71   0.958   1_565  S
O71         Ni79   1.879   1_545  S
O71         Ni73   1.983   1_655  S
O71         Ni78   1.933       .  S
O72         Ni73   1.946       .  S
Ni73         O77   1.932       .  S
Ni73         O75   1.891       .  S
O74         Ni79   1.949       .  S
C76          O77   1.273   1_565  A
C76         C120   1.486   1_565  S
O81          C91   1.290   1_565  A
O81         Ni89   1.963   1_554  S
O82          C92   1.288   1_565  A
O82        Ni389   1.956       .  S
O83         C393   1.283   1_565  A
O83         Ni89   1.930       .  S
O84          C94   1.282   1_565  A
O84         Ni89   1.922       .  S
O85         C394   1.283       .  A
O85         Ni90   1.928       .  S
O86          C93   1.285       .  A
O86         Ni90   1.933       .  S
O87          C92   1.289       .  A
O87         Ni90   1.959       .  S
O88          C91   1.287       .  A
O88        Ni390   1.953   1_554  S
Ni89        O382   1.956       .  S
Ni89       Ni390   2.379   1_565  S
Ni90        O388   1.952       .  S
Ni90       Ni389   2.379   1_545  S
C91         C106   1.518       .  S
C92         C105   1.518       .  S
C93         O383   1.283   1_545  A
C93         C192   1.494       .  S
C94         O385   1.283       .  A
C94         C171   1.487       .  S
O95         C105   1.288   1_565  A
O95        Ni103   1.955       .  S
O96         C106   1.288   1_565  A
O96        Ni103   1.957       .  S
O97         C107   1.282   1_565  A
O97        Ni103   1.922       .  S
O98         C108   1.284   1_565  A
O98        Ni103   1.925       .  S
O99         C108   1.283       .  A
O99        Ni104   1.929       .  S
O100        C107   1.283       .  A
O100       Ni104   1.925       .  S
O101        C106   1.289       .  A
O101       Ni104   1.958       .  S
O102        C105   1.289       .  A
O102       Ni104   1.961       .  S
Ni103      Ni104   2.379   1_565  S
C107        C147   1.490   1_545  S
C108        C123   1.492       .  S
C109        C110   1.398       .  A
C109        C114   1.403       .  A
C109        H125   1.083       .  S
C110        C111   1.403       .  A
C110        H126   1.084       .  S
C111        C121   1.401       .  A
C111        C112   1.410   1_565  A
C112        C118   1.413       .  A
C112        C113   1.417       .  A
C113        C115   1.411       .  A
C113        C114   1.412   1_545  A
C114        C122   1.404       .  A
C115        C124   1.411       .  A
C115        C116   1.406       .  A
C116        C117   1.404       .  A
C116        H127   1.083       .  S
C117        C118   1.405       .  A
C117        H128   1.083       .  S
C118        C119   1.413       .  A
C119        C120   1.409       .  A
C119        H129   1.084       .  S
C120        C121   1.407   1_545  A
C121        H130   1.085       .  S
C122        C123   1.408   1_565  A
C122        H131   1.084       .  S
C123        C124   1.412       .  A
C124        H132   1.084       .  S
C133        C134   1.398       .  A
C133        C138   1.403       .  A
C133        H149   1.083       .  S
C134        C135   1.403       .  A
C134        H150   1.084       .  S
C135        C145   1.399       .  A
C135        C136   1.409   1_545  A
C136        C142   1.414       .  A
C136        C137   1.415       .  A
C137        C139   1.410       .  A
C137        C138   1.412   1_565  A
C138        C146   1.404       .  A
C139        C148   1.408       .  A
C139        C140   1.405       .  A
C140        C141   1.403       .  A
C140        H151   1.083       .  S
C141        C142   1.405       .  A
C141        H152   1.083       .  S
C142        C143   1.413       .  A
C143        C144   1.408       .  A
C143        H153   1.084       .  S
C144        C145   1.408   1_565  A
C145        H154   1.085       .  S
C146        C147   1.408   1_545  A
C146        H155   1.084       .  S
C147        C148   1.411       .  A
C148        H156   1.084       .  S
C157        C158   1.400       .  A
C157        C162   1.404       .  A
C157        H173   1.083       .  S
C158        C159   1.404       .  A
C158        H174   1.083       .  S
C159        C169   1.406       .  A
C159        C160   1.412   1_565  A
C160        C161   1.415       .  A
C160        C466   1.412       .  A
C161        C162   1.411   1_545  A
C161        C463   1.412   1_556  A
C162        C170   1.405       .  A
C163        C172   1.408       .  A
C163        C164   1.404       .  A
C163        C461   1.412       .  A
C164        C165   1.401       .  A
C164        H175   1.083       .  S
C165        C166   1.405       .  A
C165        H176   1.084       .  S
C166        C167   1.407       .  A
C166        C460   1.411       .  A
C167        C468   1.409       .  A
C167        H177   1.084       .  S
C168        C169   1.408   1_545  A
C168        C467   1.408       .  A
C169        H178   1.084       .  S
C170        C171   1.409   1_565  A
C170        H179   1.084       .  S
C171        C472   1.408   1_556  A
C172        C471   1.408       .  A
C172        H180   1.084       .  S
C181        C182   1.401       .  A
C181        C186   1.404       .  A
C181        H197   1.083       .  S
C182        C183   1.404       .  A
C182        H198   1.083       .  S
C183        C193   1.408       .  A
C183        C484   1.411       .  A
C184        C190   1.412   1_545  A
C184        C185   1.420   1_545  A
C184        C483   1.411       .  A
C185        C187   1.411       .  A
C185        C486   1.412   1_565  A
C186        C194   1.410       .  A
C186        C485   1.412   1_545  A
C187        C196   1.411       .  A
C187        C188   1.406       .  A
C188        C189   1.404       .  A
C188        H199   1.083       .  S
C189        C190   1.405       .  A
C189        H200   1.084       .  S
C190        C191   1.412       .  A
C191        C192   1.411   1_565  A
C191        H201   1.084       .  S
C192        C493   1.409       .  A
C193        C492   1.409   1_554  A
C193        H202   1.084       .  S
C194        C495   1.409   1_545  A
C194        H203   1.084       .  S
C195        C196   1.413       .  A
C195        C494   1.410   1_565  A
C196        H204   1.084       .  S
C205        C206   1.399       .  A
C205        C210   1.404       .  A
C205        H221   1.084       .  S
C206        C207   1.404       .  A
C206        H222   1.084       .  S
C207        C217   1.403       .  A
C207        C208   1.411       .  A
C208        C214   1.412   1_655  A
C208        C209   1.412       .  A
C209        C211   1.411   1_655  A
C209        C210   1.412       .  A
C210        C218   1.404       .  A
C211        C220   1.403       .  A
C211        C212   1.404       .  A
C212        C213   1.399       .  A
C212        H223   1.084       .  S
C213        C214   1.403       .  A
C213        H224   1.084       .  S
C214        C215   1.403       .  A
C215        C216   1.405   1_455  A
C215        H225   1.084       .  S
C216        C217   1.407       .  A
C217        H226   1.084       .  S
C218        C219   1.407       .  A
C218        H227   1.084       .  S
C219        C220   1.409   1_655  A
C220        H228   1.084       .  S
C229        C230   1.400       .  A
C229        C234   1.404       .  A
C229        H245   1.084       .  S
C230        C231   1.404       .  A
C230        H246   1.083       .  S
C231        C241   1.407       .  A
C231        C232   1.413       .  A
C232        C238   1.410   1_455  A
C232        C233   1.412       .  A
C233        C235   1.411   1_455  A
C233        C234   1.411       .  A
C234        C242   1.404       .  A
C235        C244   1.403       .  A
C235        C236   1.403       .  A
C236        C237   1.398       .  A
C236        H247   1.084       .  S
C237        C238   1.404       .  A
C237        H248   1.084       .  S
C238        C239   1.401       .  A
C239        C240   1.408   1_655  A
C239        H249   1.084       .  S
C240        C241   1.407       .  A
C241        H250   1.084       .  S
C242        C243   1.408   1_455  A
C242        H251   1.084       .  S
C243        C244   1.409       .  A
C244        H252   1.084       .  S
C253        C254   1.404       .  A
C253        C258   1.406       .  A
C253        H269   1.083       .  S
C254        C255   1.406       .  A
C254        H270   1.083       .  S
C255        C265   1.413       .  A
C255        C556   1.411       .  A
C256        C262   1.411   1_455  A
C256        C257   1.422       .  A
C256        C555   1.411       .  A
C257        C259   1.412   1_455  A
C257        C558   1.411       .  A
C258        C266   1.413       .  A
C258        C557   1.411       .  A
C259        C268   1.411       .  A
C259        C260   1.404       .  A
C260        C261   1.403       .  A
C260        H271   1.083       .  S
C261        C262   1.405       .  A
C261        H272   1.083       .  S
C262        C263   1.412       .  A
C263        C264   1.412   1_655  A
C263        H273   1.084       .  S
C264        C565   1.414       .  A
C265        C564   1.414       .  A
C265        H274   1.084       .  S
C266        C567   1.415       .  A
C266        H275   1.084       .  S
C267        C268   1.410   1_455  A
C267        C566   1.416       .  A
C268        H276   1.084       .  S
C277        C278   1.406       .  A
C277        C282   1.406       .  A
C277        H593   1.083       .  S
C278        C279   1.406       .  A
C278        H594   1.083       .  S
C279        C289   1.417       .  A
C279        C280   1.412   1_455  A
C280        C286   1.410       .  A
C280        C281   1.423   1_655  A
C281        C283   1.411   1_455  A
C281        C282   1.411       .  A
C282        C290   1.415       .  A
C283        C292   1.412       .  A
C283        C284   1.405       .  A
C284        C285   1.402       .  A
C284        H295   1.083       .  S
C285        C286   1.405       .  A
C285        H296   1.083       .  S
C286        C287   1.411       .  A
C287        C288   1.414       .  A
C287        H297   1.084       .  S
C288        C289   1.415   1_655  A
C289        H598   1.084       .  S
C290        C291   1.415       .  A
C290        H299   1.084       .  S
C291        C292   1.412   1_455  A
C292        H300   1.084       .  S
H293        C577   1.083       .  S
H294        C578   1.083       .  S
H298        C589   1.084       .  S
O301        C311   1.289       .  A
O302        C312   1.290       .  A
O302       Ni309   1.962       .  S
O303        C313   1.284       .  A
O303       Ni309   1.936       .  S
O304        C314   1.285       .  A
O305        C314   1.286   1_655  A
O305       Ni310   1.938       .  S
O306        C313   1.286   1_655  A
O307        C312   1.288   1_655  A
O308        C311   1.288   1_655  A
O308       Ni310   1.956       .  S
C311        C326   1.517       .  S
C312        C325   1.521       .  S
C313        C564   1.505       .  S
C314        C591   1.508       .  S
O315        C325   1.288       .  A
O315       Ni323   1.956       .  S
O316        C326   1.288       .  A
O316       Ni323   1.958       .  S
O317        C327   1.284   1_455  A
O317       Ni323   1.926       .  S
O318        C328   1.283       .  A
O318       Ni323   1.927       .  S
O319        C328   1.280   1_655  A
O319       Ni324   1.908       .  S
O320        C327   1.279       .  A
O320       Ni324   1.909       .  S
O321        C326   1.289   1_655  A
O321       Ni324   1.957       .  S
O322        C325   1.290   1_655  A
O322       Ni324   1.964       .  S
Ni323      Ni324   2.381   1_455  S
C327        C516   1.477       .  S
C328        C540   1.481       .  S
O329       Ni335   1.936       .  S
O330        C339   1.267       .  A
O330       Ni353   1.908   1_554  S
O331       Ni335   1.926   1_545  S
O331       Ni353   1.984   1_445  S
O331        H354   0.964       .  S
C332        O349   1.245       .  A
C332        O341   1.267   1_565  A
C332        C369   1.456       .  S
O333       Ni352   1.957       .  S
O334        C336   1.276       .  A
O334       Ni352   1.923       .  S
Ni335       O338   1.883   1_455  S
Ni335       O340   1.918       .  S
C336        O346   1.285   1_655  A
C336        C588   1.509       .  S
O337        C343   1.238       .  A
O337       Ni353   1.887   1_545  S
O338        C343   1.264   1_565  A
C339        C495   1.500       .  S
O340        C342   1.275       .  A
O341       Ni352   1.896   1_455  S
C342        O348   1.287   1_455  A
C342        C567   1.502       .  S
C343        C358   1.455       .  S
H344        O345   0.966       .  S
O345       Ni347   1.974   1_665  S
O345       Ni352   1.921   1_565  S
O346       Ni347   1.980       .  S
Ni347       O351   1.909       .  S
Ni347       O349   1.896   1_545  S
O348       Ni353   1.975       .  S
C350        O351   1.268       .  A
C350        C468   1.484       .  S
O355        C376   1.272       .  A
O355       Ni361   1.927       .  S
O356        C365   1.274   1_565  A
O356       Ni379   1.932       .  S
O357       Ni361   1.924       .  S
O357       Ni379   1.974   1_455  S
O357       Ni373   1.865   1_565  S
O357        H380   0.963   1_565  S
C358        O375   1.245   1_655  A
C358        O367   1.258       .  A
O359        C365   1.272       .  A
O359       Ni378   1.920       .  S
O360        C362   1.274       .  A
O360       Ni378   1.905       .  S
Ni361       O364   1.905       .  S
Ni361       O366   1.909       .  S
C362        O372   1.279   1_655  A
C362        C543   1.483       .  S
O363        C369   1.248   1_655  A
O363       Ni379   1.893       .  S
O364        C369   1.262       .  A
C365        C444   1.486   1_545  S
O366        C368   1.273       .  A
O367       Ni378   1.905       .  S
C368        O374   1.280   1_455  A
C368        C519   1.484   1_455  S
H370        O371   0.957   1_565  S
O371       Ni379   1.875   1_545  S
O371       Ni373   1.981   1_655  S
O371       Ni378   1.932       .  S
O372       Ni373   1.944       .  S
Ni373       O377   1.934       .  S
Ni373       O375   1.890       .  S
O374       Ni379   1.950       .  S
C376        O377   1.274   1_565  A
C376        C420   1.488   1_565  S
O381        C391   1.290   1_565  A
O381       Ni389   1.961       .  S
O382        C392   1.288   1_565  A
O383       Ni389   1.929       .  S
O384        C394   1.282   1_565  A
O384       Ni389   1.921       .  S
O385       Ni390   1.928       .  S
O386        C393   1.285       .  A
O386       Ni390   1.933       .  S
O387        C392   1.288       .  A
O387       Ni390   1.958       .  S
O388        C391   1.287       .  A
C391        C406   1.517       .  S
C392        C405   1.517       .  S
C393        C492   1.494       .  S
C394        C471   1.486       .  S
O395        C405   1.288   1_565  A
O395       Ni403   1.955       .  S
O396        C406   1.288   1_565  A
O396       Ni403   1.957       .  S
O397        C407   1.282   1_565  A
O397       Ni403   1.924       .  S
O398        C408   1.284   1_565  A
O398       Ni403   1.928       .  S
O399        C408   1.283       .  A
O399       Ni404   1.930       .  S
O400        C407   1.283       .  A
O400       Ni404   1.925       .  S
O401        C406   1.289       .  A
O401       Ni404   1.956       .  S
O402        C405   1.289       .  A
O402       Ni404   1.959       .  S
Ni403      Ni404   2.379   1_565  S
C407        C447   1.490   1_545  S
C408        C423   1.494       .  S
C409        C410   1.398       .  A
C409        C414   1.403       .  A
C409        H425   1.083       .  S
C410        C411   1.403       .  A
C410        H426   1.083       .  S
C411        C421   1.402       .  A
C411        C412   1.410   1_565  A
C412        C418   1.414       .  A
C412        C413   1.417       .  A
C413        C415   1.411       .  A
C413        C414   1.412   1_545  A
C414        C422   1.405       .  A
C415        C424   1.412       .  A
C415        C416   1.406       .  A
C416        C417   1.405       .  A
C416        H427   1.083       .  S
C417        C418   1.406       .  A
C417        H428   1.083       .  S
C418        C419   1.414       .  A
C419        C420   1.410       .  A
C419        H429   1.084       .  S
C420        C421   1.408   1_545  A
C421        H430   1.085       .  S
C422        C423   1.408   1_565  A
C422        H431   1.084       .  S
C423        C424   1.412       .  A
C424        H432   1.084       .  S
C433        C434   1.398       .  A
C433        C438   1.403       .  A
C433        H449   1.083       .  S
C434        C435   1.403       .  A
C434        H450   1.084       .  S
C435        C445   1.401       .  A
C435        C436   1.409   1_545  A
C436        C442   1.414       .  A
C436        C437   1.415       .  A
C437        C439   1.410       .  A
C437        C438   1.412   1_565  A
C438        C446   1.405       .  A
C439        C448   1.408       .  A
C439        C440   1.405       .  A
C440        C441   1.403       .  A
C440        H451   1.083       .  S
C441        C442   1.404       .  A
C441        H452   1.083       .  S
C442        C443   1.412       .  A
C443        C444   1.408       .  A
C443        H453   1.084       .  S
C444        C445   1.408   1_565  A
C445        H454   1.085       .  S
C446        C447   1.408   1_545  A
C446        H455   1.084       .  S
C447        C448   1.411       .  A
C448        H456   1.084       .  S
C457        C458   1.399       .  A
C457        C462   1.404       .  A
C457        H473   1.083       .  S
C458        C459   1.403       .  A
C458        H474   1.083       .  S
C459        C469   1.405       .  A
C459        C460   1.412   1_565  A
C460        C461   1.415       .  A
C461        C462   1.411   1_545  A
C462        C470   1.405       .  A
C463        C472   1.407       .  A
C463        C464   1.404       .  A
C464        C465   1.401       .  A
C464        H475   1.083       .  S
C465        C466   1.404   1_554  A
C465        H476   1.083       .  S
C466        C467   1.406       .  A
C467        H477   1.084   1_556  S
C468        C469   1.407   1_545  A
C469        H478   1.084       .  S
C470        C471   1.408   1_565  A
C470        H479   1.084       .  S
C472        H480   1.084       .  S
C481        C482   1.401       .  A
C481        C486   1.404       .  A
C481        H497   1.083       .  S
C482        C483   1.404       .  A
C482        H498   1.083       .  S
C483        C493   1.409       .  A
C484        C490   1.412   1_544  A
C484        C485   1.420   1_545  A
C485        C487   1.411   1_554  A
C486        C494   1.410       .  A
C487        C496   1.412   1_556  A
C487        C488   1.407       .  A
C488        C489   1.404       .  A
C488        H499   1.084       .  S
C489        C490   1.406       .  A
C489        H500   1.084       .  S
C490        C491   1.413       .  A
C491        C492   1.412   1_565  A
C491        H501   1.084       .  S
C493        H502   1.084       .  S
C494        H503   1.084       .  S
C495        C496   1.415       .  A
C496        H504   1.084   1_554  S
C505        C506   1.399       .  A
C505        C510   1.404       .  A
C505        H521   1.084       .  S
C506        C507   1.404       .  A
C506        H522   1.084       .  S
C507        C517   1.403       .  A
C507        C508   1.412       .  A
C508        C514   1.412   1_655  A
C508        C509   1.412       .  A
C509        C511   1.411   1_655  A
C509        C510   1.412       .  A
C510        C518   1.404       .  A
C511        C520   1.404       .  A
C511        C512   1.404       .  A
C512        C513   1.399       .  A
C512        H523   1.084       .  S
C513        C514   1.403       .  A
C513        H524   1.084       .  S
C514        C515   1.403       .  A
C515        C516   1.405   1_455  A
C515        H525   1.084       .  S
C516        C517   1.407       .  A
C517        H526   1.084       .  S
C518        C519   1.407       .  A
C518        H527   1.084       .  S
C519        C520   1.409   1_655  A
C520        H528   1.084       .  S
C529        C530   1.401       .  A
C529        C534   1.404       .  A
C529        H545   1.084       .  S
C530        C531   1.404       .  A
C530        H546   1.083       .  S
C531        C541   1.407       .  A
C531        C532   1.413       .  A
C532        C538   1.410   1_455  A
C532        C533   1.411       .  A
C533        C535   1.411   1_455  A
C533        C534   1.411       .  A
C534        C542   1.405       .  A
C535        C544   1.400       .  A
C535        C536   1.403       .  A
C536        C537   1.397       .  A
C536        H547   1.084       .  S
C537        C538   1.403       .  A
C537        H548   1.084       .  S
C538        C539   1.399       .  A
C539        C540   1.407   1_655  A
C539        H549   1.084       .  S
C540        C541   1.407       .  A
C541        H550   1.084       .  S
C542        C543   1.408   1_455  A
C542        H551   1.084       .  S
C543        C544   1.408       .  A
C544        H552   1.084       .  S
C553        C554   1.404       .  A
C553        C558   1.406       .  A
C553        H569   1.083       .  S
C554        C555   1.406       .  A
C554        H570   1.083       .  S
C555        C565   1.414       .  A
C556        C562   1.411   1_455  A
C556        C557   1.421       .  A
C557        C559   1.412   1_455  A
C558        C566   1.413       .  A
C559        C568   1.410       .  A
C559        C560   1.404       .  A
C560        C561   1.402       .  A
C560        H571   1.083       .  S
C561        C562   1.405       .  A
C561        H572   1.083       .  S
C562        C563   1.411       .  A
C563        C564   1.412   1_655  A
C563        H573   1.084       .  S
C565        H574   1.084       .  S
C566        H575   1.084       .  S
C567        C568   1.410   1_455  A
C568        H576   1.084       .  S
C577        C578   1.406       .  A
C577        C582   1.407       .  A
C578        C579   1.406       .  A
C579        C589   1.417       .  A
C579        C580   1.412   1_455  A
C580        C586   1.410       .  A
C580        C581   1.424   1_655  A
C581        C583   1.412   1_455  A
C581        C582   1.411       .  A
C582        C590   1.416       .  A
C583        C592   1.412       .  A
C583        C584   1.405       .  A
C584        C585   1.402       .  A
C584        H595   1.083       .  S
C585        C586   1.405       .  A
C585        H596   1.083       .  S
C586        C587   1.411       .  A
C587        C588   1.414       .  A
C587        H597   1.084       .  S
C588        C589   1.415   1_655  A
C590        C591   1.415       .  A
C590        H599   1.084       .  S
C591        C592   1.413   1_455  A
C592        H600   1.084       .  S
