geometry optimzed in LAMMPS
_audit_creation_date              2020-11-30 
_audit_creation_method            'lammps2cif' 
_symmetry_space_group_name_H-M    'P1' 
_symmetry_Int_Tables_number       1 
_symmetry_cell_setting            triclinic 
loop_ 
_symmetry_equiv_pos_as_xyz 
  x,y,z 
_cell_length_a                    33.97211066 
_cell_length_b                    33.843374873350164 
_cell_length_c                    33.6500263914391 
_cell_angle_alpha                 91.85293311195925 
_cell_angle_beta                  88.89048127013339 
_cell_angle_gamma                 92.36773697435528 
loop_ 
_atom_site_label 
_atom_site_type_symbol 
_atom_site_fract_x 
_atom_site_fract_y 
_atom_site_fract_z 
_atom_site_charge 
N1          N  0.00553900  0.46913899  0.04529128    -0.35600
N2          N  0.01224360  0.46582253  0.95763883    -0.56200
N3          N  0.00475700  0.54944201  0.95671763    -0.35600
N4          N  0.00236616  0.55291849  0.04526024    -0.56200
C5          C  0.02117066  0.43366948  0.03709963     0.27900
C6          C  0.01425974  0.47968319  0.08347339     0.27900
C7          C  0.01776571  0.54176025  0.91905170     0.27900
C8          C  0.01356903  0.58801295  0.96548529     0.27900
C9          C  0.00726142  0.42697387  0.96507166     0.36600
C10         C  0.00655974  0.46941142  0.91823239     0.36600
C11         C  0.98762398  0.54545315  0.08216999     0.36600
C12         C  0.98849087  0.58792823  0.03496176     0.36600
C13         C  0.04081133  0.42169655  0.07004655    -0.20900
C14         C  0.03746062  0.45127196  0.09890405    -0.20900
C15         C  0.03505355  0.57582962  0.90358400    -0.20900
C16         C  0.03312952  0.60485699  0.93316075    -0.20900
C17         C  0.99896022  0.40566878  0.93007783    -0.22000
C18         C  0.99852794  0.43261611  0.90037566    -0.22000
C19         C  0.96308410  0.57534388  0.09461256    -0.22000
C20         C  0.96401180  0.60241480  0.06492395    -0.22000
C21         C  0.01402155  0.41040087  0.00221384    -0.17300
C22         C  0.99863010  0.51283152  0.10454263    -0.17300
C23         C  0.00100982  0.60843481  0.00065072    -0.17300
C24         C  0.01228990  0.50518225  0.89807733    -0.17300
H25         H  0.05610376  0.39458559  0.07305322     0.15600
H26         H  0.05067113  0.45148466  0.12788865     0.15600
H27         H  0.04796430  0.57943776  0.87422505     0.15600
H28         H  0.04456953  0.63499208  0.93074008     0.15600
H29         H  0.99490994  0.37392852  0.92603230     0.13900
H30         H  0.99384695  0.42578684  0.86914030     0.13900
H31         H  0.94556308  0.57737613  0.12166942     0.13900
H32         H  0.94821719  0.62954963  0.06519927     0.13900
H33         H  0.98554986  0.48264476  0.02748422     0.27100
H34         H  0.98686635  0.53071487  0.97396460     0.27100
N35         N  0.98566579  0.45460015  0.54679267    -0.35600
N36         N  0.98600056  0.45238729  0.45865064    -0.56200
N37         N  0.98989420  0.53729046  0.46002807    -0.35600
N38         N  0.99346103  0.53937685  0.54795460    -0.56200
C39         C  0.98932583  0.41550257  0.53878451     0.27900
C40         C  0.99425004  0.46157716  0.58569092     0.27900
C41         C  0.00048822  0.52860638  0.42164737     0.27900
C42         C  0.00326506  0.57474757  0.46880569     0.27900
C43         C  0.97289076  0.41507739  0.46659246     0.36600
C44         C  0.97654175  0.45892480  0.42044288     0.36600
C45         C  0.98856955  0.53452054  0.58754852     0.36600
C46         C  0.98908538  0.57814574  0.54175125     0.36600
C47         C  0.99979586  0.39732324  0.57328757    -0.20900
C48         C  0.00293214  0.42636325  0.60275362    -0.20900
C49         C  0.02212067  0.56058133  0.40659132    -0.20900
C50         C  0.02282662  0.58998166  0.43578382    -0.20900
C51         C  0.95504810  0.39783768  0.43327889    -0.22000
C52         C  0.95640958  0.42581996  0.40457162    -0.22000
C53         C  0.98198402  0.57050370  0.60673059    -0.22000
C54         C  0.98224327  0.59813847  0.57776264    -0.22000
C55         C  0.97977473  0.39543793  0.50229195    -0.17300
C56         C  0.99190933  0.49834861  0.60676422    -0.17300
C57         C  0.99529524  0.59626161  0.50473433    -0.17300
C58         C  0.98844813  0.49358030  0.39966578    -0.17300
H59         H  0.00368172  0.36618547  0.57742716     0.15600
H60         H  0.01005137  0.42186366  0.63344859     0.15600
H61         H  0.03612663  0.56287148  0.37759132     0.15600
H62         H  0.03665777  0.61905050  0.43270903     0.15600
H63         H  0.94190739  0.36834695  0.42982480     0.13900
H64         H  0.94332696  0.42198760  0.37563953     0.13900
H65         H  0.97791702  0.57636087  0.63832166     0.13900
H66         H  0.97908465  0.62955115  0.58300602     0.13900
H67         H  0.97365931  0.47423173  0.52777497     0.27100
H68         H  0.97038085  0.52070672  0.47773962     0.27100
O69         O  0.98033276  0.03545452  0.91469116    -0.77500
C70         C  0.89369429  0.00762266  0.00138133     0.83500
O71         O  0.03759530  0.10327689  0.02082660    -0.78600
O72         O  0.97663571  0.99206499  0.09118415    -0.80100
O73         O  0.02081003  0.91645293  0.96957688    -0.79900
O74         O  0.02726140  0.99108802  0.90813149    -0.78500
Zn75       Zn  0.97128616  0.04533818  0.97244711     1.55700
O76         O  0.98188366  0.91520465  0.02376063    -0.79900
Cd77       Cd  0.03708964  0.97587156  0.96489072     1.59700
Cd78       Cd  0.04107066  0.04413971  0.03243203     1.59600
O79         O  0.09737803  0.98334634  0.97549052    -0.79900
O80         O  0.00417549  0.01012490  0.00017622    -1.90400
Cd81       Cd  0.96925388  0.97470416  0.03286829     1.59900
O82         O  0.09891320  0.03036928  0.02326489    -0.79900
O83         O  0.91016052  0.98114260  0.02055433    -0.78500
C84         C  0.01178840  0.12183921  0.00296363     0.84000
C85         C  0.00316625  0.01423955  0.89352174     0.83600
O86         O  0.91373202  0.03424826  0.98325714    -0.77500
C87         C  0.00069926  0.89759950  0.99566883     0.84500
O88         O  0.98348268  0.10368523  0.98487888    -0.77600
C89         C  0.11636395  0.00640229  0.99972850     0.84600
C90         C  0.00040673  0.01649809  0.10887432     0.84900
O91         O  0.02672828  0.03730555  0.09087085    -0.80000
O92         O  0.98232004  0.01997248  0.41240529    -0.77500
C93         C  0.89165094  0.99209786  0.50323678     0.83500
O94         O  0.02943952  0.09216176  0.52064568    -0.78600
O95         O  0.98234138  0.97565907  0.59162187    -0.80100
O96         O  0.02485941  0.90377838  0.47339488    -0.79900
O97         O  0.03169911  0.97806811  0.40858576    -0.78500
Zn98       Zn  0.96824568  0.02887441  0.46972611     1.55700
O99         O  0.97863541  0.90215304  0.52132286    -0.79900
Cd100      Cd  0.03727074  0.96317344  0.46619082     1.59700
Cd101      Cd  0.03949212  0.03360722  0.53022294     1.59600
O102        O  0.09590104  0.97155779  0.47859052    -0.79900
O103        O  0.00274475  0.99718267  0.49968170    -1.90400
Cd104      Cd  0.96909274  0.96180564  0.53360741     1.59900
O105        O  0.09865240  0.02406648  0.51986952    -0.79900
O106        O  0.90976461  0.97041112  0.52646513    -0.78500
C107        C  0.00209424  0.10820071  0.50241935     0.84000
C108        C  0.00810280  0.00080830  0.39270822     0.83600
O109        O  0.91021408  0.01492236  0.47929074    -0.77500
C110        C  0.00177685  0.88473766  0.49681353     0.84500
O111        O  0.97615793  0.08766758  0.48309528    -0.77600
C112        C  0.11543387  0.99709687  0.49945334     0.84600
C113        C  0.00695984  0.00020682  0.60790204     0.84900
O114        O  0.02994500  0.02352487  0.58871340    -0.80000
N115        N  0.54597674  0.98896638  0.04565496    -0.35600
N116        N  0.46067324  0.99129944  0.04471222    -0.56200
N117        N  0.46360504  0.98879493  0.95663074    -0.35600
N118        N  0.54892111  0.99232644  0.95778979    -0.56200
C119        C  0.53858964  0.99557914  0.08509289     0.27900
C120        C  0.58521070  0.99494351  0.03926280     0.27900
C121        C  0.42490696  0.99498979  0.96362620     0.27900
C122        C  0.47164567  0.99685749  0.91792085     0.27900
C123        C  0.46525299  0.98652118  0.08423778     0.36600
C124        C  0.42179337  0.98512121  0.03740212     0.36600
C125        C  0.58760795  0.98794290  0.96451895     0.36600
C126        C  0.54435457  0.98902183  0.91784981     0.36600
C127        C  0.57377694  0.00506468  0.10402771    -0.20900
C128        C  0.60308706  0.00470192  0.07522066    -0.20900
C129        C  0.40814393  0.00666678  0.92879682    -0.20900
C130        C  0.43740722  0.00747987  0.90003232    -0.20900
C131        C  0.42905347  0.97776859  0.10215485    -0.22000
C132        C  0.40166698  0.97652008  0.07256547    -0.22000
C133        C  0.60767540  0.98217529  0.92860419    -0.22000
C134        C  0.58039218  0.98313506  0.89914101    -0.22000
C135        C  0.50130106  0.99168566  0.10479337    -0.17300
C136        C  0.60571196  0.99083227  0.00223612    -0.17300
C137        C  0.50860772  0.99364632  0.89781366    -0.17300
C138        C  0.40374651  0.98901232  0.99998269    -0.17300
H139        H  0.57803054  0.01146575  0.13540464     0.15600
H140        H  0.63410730  0.01107107  0.08026182     0.15600
H141        H  0.37788559  0.01405268  0.92440350     0.15600
H142        H  0.43371028  0.01513871  0.86940396     0.15600
H143        H  0.42296777  0.97266535  0.13329866     0.13900
H144        H  0.37041203  0.97014384  0.07666611     0.13900
H145        H  0.63886078  0.97803240  0.92395547     0.13900
H146        H  0.58650957  0.98005571  0.86753852     0.13900
H147        H  0.52625639  0.97752066  0.02487716     0.27100
H148        H  0.48217909  0.97607217  0.97611948     0.27100
N149        N  0.54642655  0.99173514  0.54320079    -0.35600
N150        N  0.54400732  0.98975430  0.45551640    -0.56200
N151        N  0.45920902  0.99021737  0.45986287    -0.35600
N152        N  0.46196426  0.99693367  0.54774643    -0.56200
C153        C  0.58467870  0.00031331  0.53373712     0.27900
C154        C  0.54116546  0.00089959  0.58245746     0.27900
C155        C  0.46520504  0.99468937  0.42017709     0.27900
C156        C  0.42184244  0.00029697  0.46886744     0.27900
C157        C  0.58251473  0.98320181  0.46089143     0.36600
C158        C  0.53633148  0.98007122  0.41695078     0.36600
C159        C  0.46860064  0.99043273  0.58655948     0.36600
C160        C  0.42263293  0.99224575  0.54279187     0.36600
C161        C  0.60383860  0.01525190  0.56744506    -0.20900
C162        C  0.57649828  0.01520045  0.59821386    -0.20900
C163        C  0.43094871  0.00709870  0.40368230    -0.20900
C164        C  0.40379329  0.01098977  0.43432722    -0.20900
C165        C  0.59935101  0.96914204  0.42560230    -0.22000
C166        C  0.57020162  0.96737009  0.39776302    -0.22000
C167        C  0.43334807  0.98202494  0.60642823    -0.22000
C168        C  0.40427333  0.98301599  0.57874178    -0.22000
C169        C  0.60334791  0.99244395  0.49630964    -0.17300
C170        C  0.50581477  0.99452162  0.60472988    -0.17300
C171        C  0.40277468  0.99780117  0.50681972    -0.17300
C172        C  0.50006473  0.98580062  0.39823944    -0.17300
H173        H  0.63453417  0.02472493  0.56986451     0.15600
H174        H  0.58203374  0.02464360  0.62869889     0.15600
H175        H  0.42585719  0.01266544  0.37275894     0.15600
H176        H  0.37395047  0.02032449  0.43128300     0.15600
H177        H  0.62962975  0.96138095  0.42029985     0.13900
H178        H  0.57381084  0.95834146  0.36682246     0.13900
H179        H  0.42897666  0.97607629  0.63764838     0.13900
H180        H  0.37314576  0.97735652  0.58452227     0.13900
H181        H  0.52635622  0.97616282  0.52509042     0.27100
H182        H  0.47793729  0.97703074  0.47900495     0.27100
C183        C  0.51019385  0.01821878  0.78588912     0.16900
C184        C  0.50892065  0.03631732  0.74886696    -0.32100
C185        C  0.50917426  0.01183347  0.71424248     0.21300
C186        C  0.51098484  0.97110556  0.71643951     0.03500
C187        C  0.51244975  0.95303023  0.75344096    -0.21800
C188        C  0.51181473  0.97747716  0.78806367     0.12700
S189        S  0.50901754  0.04262328  0.83130477    -0.05500
C190        C  0.51017426  0.99747999  0.85359888    -0.09000
C191        C  0.51190697  0.96541170  0.82683024    -0.25600
S192        S  0.51061169  0.94652387  0.67112464    -0.02800
C193        C  0.50797155  0.99147746  0.64883519    -0.16200
C194        C  0.50736422  0.02371324  0.67548700    -0.14200
H195        H  0.50738426  0.06810629  0.74714877     0.21100
H196        H  0.51360347  0.92120860  0.75517247     0.17200
H197        H  0.51269986  0.93488518  0.83536083     0.19700
H198        H  0.50556441  0.05413368  0.66690908     0.13000
C199        C  0.49798377  0.96450383  0.28412075     0.16900
C200        C  0.49789136  0.94733323  0.24545387    -0.32100
C201        C  0.49853333  0.97268971  0.21307783     0.21300
C202        C  0.49906346  0.01344217  0.21895857     0.03500
C203        C  0.49906680  0.03064341  0.25766541    -0.21800
C204        C  0.49861877  0.00524806  0.29005991     0.12700
S205        S  0.49781611  0.93877767  0.32720425    -0.05500
C206        C  0.49881548  0.98329460  0.35372890    -0.09000
C207        C  0.49910560  0.01620206  0.32993760    -0.25600
S208        S  0.50012059  0.03901207  0.17570811    -0.02800
C209        C  0.49993181  0.99437613  0.14934473    -0.16200
C210        C  0.49903615  0.96159619  0.17324437    -0.14200
H211        H  0.49756086  0.91551754  0.24079981     0.21100
H212        H  0.49963342  0.06246699  0.26232208     0.17200
H213        H  0.49986958  0.04651735  0.34129851     0.19700
H214        H  0.49893764  0.93126128  0.16199172     0.13000
C215        C  0.22554224  0.97888385  0.48903807     0.16900
C216        C  0.26252660  0.96497450  0.47819134    -0.32100
C217        C  0.29557933  0.98425719  0.49522673     0.21300
C218        C  0.29210207  0.01600686  0.52199780     0.03500
C219        C  0.25495226  0.02966227  0.53329052    -0.21800
C220        C  0.22179905  0.01041207  0.51604657     0.12700
S221        S  0.18219997  0.95990830  0.47068736    -0.05500
C222        C  0.15850447  0.99480283  0.49960249    -0.09000
C223        C  0.18320518  0.01967151  0.52237217    -0.25600
S224        S  0.33611060  0.03594086  0.53832874    -0.02800
C225        C  0.35926958  0.00076638  0.50899848    -0.16200
C226        C  0.33394343  0.97523960  0.48785764    -0.14200
H227        H  0.26543811  0.94040008  0.45706033     0.21100
H228        H  0.25205166  0.05442441  0.55419188     0.17200
H229        H  0.17349553  0.04328171  0.54223924     0.19700
H230        H  0.34324238  0.95141793  0.46802931     0.13000
C231        C  0.71571660  0.00996971  0.48209901     0.16900
C232        C  0.75400551  0.02351647  0.47146525    -0.32100
C233        C  0.78572883  0.00559325  0.48889120     0.21300
C234        C  0.77953486  0.97557931  0.51568400     0.03500
C235        C  0.74134323  0.96208540  0.52628746    -0.21800
C236        C  0.70969427  0.97995419  0.50892348     0.12700
S237        S  0.67323365  0.02790992  0.46465472    -0.05500
C238        C  0.64716180  0.99468646  0.49397590    -0.09000
C239        C  0.67047229  0.97103516  0.51581503    -0.25600
S240        S  0.82163263  0.95744553  0.53346182    -0.02800
C241        C  0.84815466  0.99038715  0.50432720    -0.16200
C242        C  0.82513956  0.01431452  0.48228579    -0.14200
H243        H  0.75884663  0.04696858  0.45056164     0.21100
H244        H  0.73650390  0.93865654  0.54721821     0.17200
H245        H  0.65920080  0.94869071  0.53586694     0.19700
H246        H  0.83660359  0.03671887  0.46239695     0.13000
C247        C  0.22815512  0.01793498  0.01424003     0.16900
C248        C  0.26622527  0.02946701  0.02653496    -0.32100
C249        C  0.29767507  0.00798466  0.01089208     0.21300
C250        C  0.29151344  0.97643817  0.98409775     0.03500
C251        C  0.25340366  0.96509973  0.97152178    -0.21800
C252        C  0.22188696  0.98653298  0.98728938     0.12700
S253        S  0.18625722  0.03973876  0.03058265    -0.05500
C254        C  0.15972999  0.00615631  0.00097754    -0.09000
C255        C  0.18259316  0.97970938  0.97936383    -0.25600
S256        S  0.33359687  0.95407563  0.96878029    -0.02800
C257        C  0.35987497  0.98784387  0.99852069    -0.16200
C258        C  0.33680633  0.01473527  0.01921985    -0.14200
H259        H  0.27109220  0.05399989  0.04756770     0.21100
H260        H  0.24852421  0.94051595  0.95055793     0.17200
H261        H  0.17109821  0.95653343  0.95933378     0.19700
H262        H  0.34819451  0.03822285  0.03895209     0.13000
C263        C  0.71668056  0.97546384  0.01052653     0.16900
C264        C  0.75400313  0.96141815  0.01781526    -0.32100
C265        C  0.78694802  0.98563159  0.00782767     0.21300
C266        C  0.78295026  0.02207390  0.99095569     0.03500
C267        C  0.74562413  0.03611710  0.98357303    -0.21800
C268        C  0.71266504  0.01202121  0.99386584     0.12700
S269        S  0.67313346  0.95074542  0.02116488    -0.05500
C270        C  0.64928601  0.99011912  0.00311581    -0.09000
C271        C  0.67394093  0.02061618  0.98951018    -0.25600
S272        S  0.82652914  0.04689225  0.98085663    -0.02800
C273        C  0.85043354  0.00789015  0.99985342    -0.16200
C274        C  0.82562847  0.97736402  0.01314070    -0.14200
H275        H  0.75721426  0.93295892  0.03093739     0.21100
H276        H  0.74241519  0.06463796  0.97057084     0.17200
H277        H  0.66395257  0.04756464  0.97723971     0.19700
H278        H  0.83536116  0.95051719  0.02583991     0.13000
C279        C  0.02826408  0.00086168  0.71714658     0.16900
C280        C  0.04478192  0.99757307  0.75435514    -0.32100
C281        C  0.02122414  0.00695212  0.78740555     0.21300
C282        C  0.98320755  0.01981214  0.78376931     0.03500
C283        C  0.96648639  0.02266292  0.74653201    -0.21800
C284        C  0.98977180  0.01246384  0.71346241     0.12700
S285        S  0.05226875  0.99115086  0.67346859    -0.05500
C286        C  0.00953522  0.00157335  0.65049124    -0.09000
C287        C  0.97863036  0.01250060  0.67490400    -0.25600
S288        S  0.95967411  0.03024111  0.82760578    -0.02800
C289        C  0.00119133  0.01600306  0.85071849    -0.16200
C290        C  0.03164059  0.00441444  0.82591558    -0.14200
H291        H  0.07454232  0.98790541  0.75742083     0.21100
H292        H  0.93663158  0.03206297  0.74348562     0.17200
H293        H  0.95001149  0.02056427  0.66489474     0.19700
H294        H  0.05970252  0.99444168  0.83557481     0.13000
C295        C  0.97966366  0.01844527  0.21949226     0.16900
C296        C  0.96297733  0.01421761  0.25727636    -0.32100
C297        C  0.98873140  0.01319850  0.28891438     0.21300
C298        C  0.02935140  0.01646628  0.28346956     0.03500
C299        C  0.04604519  0.02232276  0.24579608    -0.21800
C300        C  0.02020624  0.02308162  0.21403959     0.12700
S301        S  0.95354621  0.01516903  0.17693298    -0.05500
C302        C  0.99773405  0.02034161  0.15175139    -0.09000
C303        C  0.03072689  0.02517697  0.17495922    -0.25600
S304        S  0.05545710  0.01127002  0.32549630    -0.02800
C305        C  0.01096218  0.00564791  0.35024800    -0.16200
C306        C  0.97799783  0.00754435  0.32741350    -0.14200
H307        H  0.93139690  0.01037323  0.26165663     0.21100
H308        H  0.07769389  0.02470856  0.24123510     0.17200
H309        H  0.06080363  0.02755005  0.16371285     0.19700
H310        H  0.94787819  0.00422996  0.33835893     0.13000
C311        C  0.02162403  0.77414723  0.49326012     0.16900
C312        C  0.03862488  0.73713256  0.49072498    -0.32100
C313        C  0.01415003  0.70377783  0.49815735     0.21300
C314        C  0.97436852  0.70704647  0.50711804     0.03500
C315        C  0.95761393  0.74417930  0.51085619    -0.21800
C316        C  0.98224831  0.77762417  0.50398414     0.12700
S317        S  0.04610969  0.81794434  0.48404614    -0.05500
C318        C  0.00327082  0.84140278  0.49618132    -0.09000
C319        C  0.97164648  0.81632212  0.50632111    -0.25600
S320        S  0.94921332  0.66286597  0.51265423    -0.02800
C321        C  0.99299049  0.63983217  0.50374728    -0.16200
C322        C  0.02520188  0.66529980  0.49704429    -0.14200
H323        H  0.06950583  0.73442899  0.48297125     0.21100
H324        H  0.92670431  0.74685909  0.51848514     0.17200
H325        H  0.94249175  0.82587207  0.51458987     0.19700
H326        H  0.05504033  0.65613501  0.49159466     0.13000
C327        C  0.01512291  0.22127123  0.50734929     0.16900
C328        C  0.02991995  0.26049132  0.50913706    -0.32100
C329        C  0.00316530  0.29042891  0.50507479     0.21300
C330        C  0.96320081  0.28188950  0.50054167     0.03500
C331        C  0.94838584  0.24253483  0.49842103    -0.21800
C332        C  0.97538524  0.21246457  0.50142313     0.12700
S333        S  0.04306067  0.18093112  0.51126388    -0.05500
C334        C  0.00108200  0.15164983  0.50361553    -0.09000
C335        C  0.96716254  0.17238637  0.49885653    -0.25600
S336        S  0.93555840  0.32279005  0.49767326    -0.02800
C337        C  0.97856880  0.35149432  0.50126078    -0.16200
C338        C  0.01218031  0.33021054  0.50508042    -0.14200
H339        H  0.06103120  0.26736832  0.51317235     0.21100
H340        H  0.91729160  0.23566378  0.49429487     0.17200
H341        H  0.93811630  0.15887686  0.49406467     0.19700
H342        H  0.04161685  0.34334141  0.50824650     0.13000
C343        C  0.02897909  0.50384161  0.78395411     0.16900
C344        C  0.04419403  0.50395163  0.74476985    -0.32100
C345        C  0.01723339  0.50196943  0.71346582     0.21300
C346        C  0.97691023  0.50001082  0.72090610     0.03500
C347        C  0.96173168  0.50020003  0.76002839    -0.21800
C348        C  0.98864247  0.50213891  0.79127489     0.12700
S349        S  0.05662752  0.50551474  0.82609312    -0.05500
C350        C  0.01337190  0.50432904  0.85380114    -0.09000
C351        C  0.97953723  0.50243438  0.83127375    -0.25600
S352        S  0.94902199  0.49730441  0.67903046    -0.02800
C353        C  0.99202460  0.49890982  0.65106904    -0.16200
C354        C  0.02610599  0.50147615  0.67333134    -0.15600
H355        H  0.07566901  0.50534697  0.73893880     0.21100
H356        H  0.93025590  0.49873844  0.76586312     0.17200
H357        H  0.94985148  0.50132828  0.84361542     0.19700
H358        H  0.05569088  0.50286167  0.66075965     0.13000
C359        C  0.99093454  0.52919120  0.22076460     0.16900
C360        C  0.98727417  0.54428506  0.26010692    -0.32100
C361        C  0.98763312  0.51734247  0.29115096     0.21300
C362        C  0.99314823  0.47761828  0.28331896     0.03500
C363        C  0.99422374  0.46223011  0.24396485    -0.21800
C364        C  0.99220323  0.48896025  0.21292935     0.12700
S365        S  0.99445622  0.55678218  0.17902219    -0.05500
C366        C  0.99483792  0.51357795  0.14972549    -0.09000
C367        C  0.99248028  0.47980244  0.17274238    -0.25600
S368        S  0.99821016  0.45093296  0.32507827    -0.02800
C369        C  0.98933452  0.49295741  0.35435486    -0.16200
C370        C  0.98380349  0.52596089  0.33135126    -0.14200
H371        H  0.98482385  0.57569259  0.26627405     0.21100
H372        H  0.99710455  0.43087304  0.23779424     0.17200
H373        H  0.99083619  0.44966378  0.16106572     0.19700
H374        H  0.97700866  0.55504043  0.34316594     0.13000
C375        C  0.00888355  0.72155307  0.02026543     0.16900
C376        C  0.01384393  0.75982498  0.03697572    -0.32100
C377        C  0.00548674  0.79157239  0.01323296     0.21300
C378        C  0.99371159  0.78556031  0.97417778     0.03500
C379        C  0.98796142  0.74716643  0.95771692    -0.21800
C380        C  0.99537960  0.71535873  0.98188444     0.12700
S381        S  0.01797812  0.67936566  0.04414139    -0.05500
C382        C  0.00199834  0.65258790  0.00255116    -0.09000
C383        C  0.99070528  0.67587744  0.97177049    -0.25600
S384        S  0.98727196  0.82819377  0.94966505    -0.02800
C385        C  0.99917726  0.85417127  0.99294972    -0.16200
C386        C  0.00804494  0.83090918  0.02437931    -0.14200
H387        H  0.02373769  0.76464328  0.06721056     0.21100
H388        H  0.97813156  0.74231077  0.92746291     0.17200
H389        H  0.97947152  0.66456778  0.94354906     0.19700
H390        H  0.01670965  0.84224600  0.05351936     0.13000
C391        C  0.98970080  0.29893214  0.00434066     0.16900
C392        C  0.97144292  0.26105798  0.00192264    -0.32100
C393        C  0.99561902  0.22854074  0.00286637     0.21300
C394        C  0.03610351  0.23355129  0.00684412     0.03500
C395        C  0.05440835  0.27143576  0.00891114    -0.21800
C396        C  0.03030259  0.30394638  0.00727758     0.12700
S397        S  0.96554862  0.34197319  0.00277831    -0.05500
C398        C  0.01065636  0.36694511  0.00518826    -0.09000
C399        C  0.04259369  0.34307347  0.00760302    -0.25600
S400        S  0.06013746  0.19042840  0.00878794    -0.02800
C401        C  0.01531920  0.16531305  0.00332629    -0.16200
C402        C  0.98352210  0.18936274  0.00034141    -0.14200
H403        H  0.93981082  0.25711972  0.99911425     0.21100
H404        H  0.08606416  0.27537911  0.01146446     0.17200
H405        H  0.07304987  0.35376400  0.00875730     0.19700
H406        H  0.95318527  0.17875789  0.99724218     0.13000
loop_ 
_geom_bond_atom_site_label_1 
_geom_bond_atom_site_label_2 
_geom_bond_distance 
_geom_bond_site_symmetry_2 
_ccdc_geom_bond_type 
N1            C6   1.357       .  A
N1            C5   1.351       .  A
N1           H33   1.043   1_455  S
N2            C9   1.349       .  A
N2           C10   1.354       .  A
N3            C8   1.352       .  A
N3            C7   1.355       .  A
N3           H34   1.042   1_455  S
N4           C11   1.358   1_455  A
N4           C12   1.351   1_455  A
C5           C13   1.385       .  A
C5           C21   1.412       .  A
C6           C22   1.423   1_455  A
C6           C14   1.388       .  A
C7           C15   1.384       .  A
C7           C24   1.412       .  A
C8           C23   1.418   1_556  A
C8           C16   1.389       .  A
C9           C21   1.413   1_556  A
C9           C17   1.388   1_455  A
C10          C24   1.411       .  A
C10          C18   1.384   1_455  A
C11          C19   1.387       .  A
C11          C22   1.423       .  A
C12          C20   1.385       .  A
C12          C23   1.416   1_655  A
C13          C14   1.378       .  A
C13          H25   1.081       .  S
C14          H26   1.081       .  S
C15          C16   1.378       .  A
C15          H27   1.082       .  S
C16          H28   1.081       .  S
C17          C18   1.375       .  A
C17          H29   1.082       .  S
C18          H30   1.082       .  S
C19          C20   1.376       .  A
C19          H31   1.080       .  S
C20          H32   1.082       .  S
C21         C398   1.477       .  S
C22         C366   1.523       .  S
C23         C382   1.493       .  S
C24         C350   1.489       .  S
N35          C40   1.358       .  A
N35          C39   1.352       .  A
N35          H67   1.038       .  S
N36          C43   1.355       .  A
N36          C44   1.358       .  A
N37          C42   1.354   1_655  A
N37          C41   1.360   1_655  A
N37          H68   1.042       .  S
N38          C45   1.354       .  A
N38          C46   1.350       .  A
C39          C47   1.390       .  A
C39          C55   1.420       .  A
C40          C56   1.417       .  A
C40          C48   1.384   1_655  A
C41          C49   1.387       .  A
C41          C58   1.426   1_455  A
C42          C57   1.418   1_455  A
C42          C50   1.386       .  A
C43          C55   1.419       .  A
C43          C51   1.385       .  A
C44          C58   1.425       .  A
C44          C52   1.386       .  A
C45          C53   1.384       .  A
C45          C56   1.412       .  A
C46          C54   1.389       .  A
C46          C57   1.414       .  A
C47          C48   1.376   1_655  A
C47          H59   1.081   1_655  S
C48          H60   1.082       .  S
C49          C50   1.375       .  A
C49          H61   1.081       .  S
C50          H62   1.080       .  S
C51          C52   1.373       .  A
C51          H63   1.080       .  S
C52          H64   1.080       .  S
C53          C54   1.372       .  A
C53          H65   1.082       .  S
C54          H66   1.081       .  S
C55         C337   1.485       .  S
C56         C353   1.490       .  S
C57         C321   1.481       .  S
C58         C369   1.524       .  S
O69          C85   1.271   1_655  A
O69         Zn75   1.982       .  S
C70         C273   1.472   1_554  S
C70          O86   1.271   1_554  A
C70          O83   1.275   1_545  A
O71          C84   1.271       .  A
O71         Cd78   2.060       .  S
O72          C90   1.274   1_665  A
O72         Cd81   2.047       .  S
O73          C87   1.273       .  A
O73         Cd77   2.074       .  S
O74          C85   1.272   1_565  A
O74         Cd77   2.032       .  S
Zn75         O86   2.004       .  S
Zn75         O88   2.033       .  S
Zn75         O80   1.939   1_656  S
O76          C87   1.276   1_654  A
O76         Cd81   2.088       .  S
Cd77         O79   2.089       .  S
Cd77         O80   1.993   1_566  S
Cd78         O82   2.053       .  S
Cd78         O91   2.035       .  S
Cd78         O80   1.982       .  S
O79          C89   1.276   1_565  A
O80         Cd81   1.993   1_445  S
Cd81         O83   2.079       .  S
O82          C89   1.271   1_554  A
C84         C401   1.471       .  S
C84          O88   1.274   1_454  A
C85         C289   1.446       .  S
C87         C385   1.468   1_455  S
C89         C254   1.475   1_556  S
C90         C302   1.446   1_455  S
C90          O91   1.272       .  A
O92         C108   1.274   1_655  A
O92         Zn98   1.995       .  S
C93         C241   1.476       .  S
C93         O109   1.274   1_565  A
C93         O106   1.273       .  A
O94         C107   1.272       .  A
O94        Cd101   2.061       .  S
O95         C113   1.273   1_665  A
O95        Cd104   2.047       .  S
O96         C110   1.272       .  A
O96        Cd100   2.058       .  S
O97         C108   1.271   1_565  A
O97        Cd100   2.033       .  S
Zn98        O109   2.030       .  S
Zn98        O111   2.034       .  S
Zn98        O103   1.939   1_645  S
O99         C110   1.276   1_655  A
O99        Cd104   2.085       .  S
Cd100       O102   2.049       .  S
Cd100       O103   1.987       .  S
Cd101       O105   2.070       .  S
Cd101       O114   2.026       .  S
Cd101       O103   1.994   1_545  S
O102        C112   1.270       .  A
O103       Cd104   1.992   1_455  S
Cd104       O106   2.068       .  S
O105        C112   1.272   1_545  A
C107        C334   1.472       .  S
C107        O111   1.275   1_455  A
C108        C305   1.444       .  S
C110        C318   1.469       .  S
C112        C222   1.469       .  S
C113        C286   1.437       .  S
C113        O114   1.270       .  A
N115        C120   1.354       .  A
N115        C119   1.359       .  A
N115        H147   1.033       .  S
N116        C123   1.358       .  A
N116        C124   1.355       .  A
N117        C122   1.360       .  A
N117        C121   1.355       .  A
N117        H148   1.035       .  S
N118        C125   1.353       .  A
N118        C126   1.356       .  A
C119        C127   1.387   1_565  A
C119        C135   1.422       .  A
C120        C136   1.421       .  A
C120        C128   1.389   1_565  A
C121        C129   1.389   1_565  A
C121        C138   1.423       .  A
C122        C137   1.421       .  A
C122        C130   1.386   1_565  A
C123        C135   1.420       .  A
C123        C131   1.384       .  A
C124        C138   1.423   1_554  A
C124        C132   1.388       .  A
C125        C133   1.388       .  A
C125        C136   1.420   1_556  A
C126        C134   1.385       .  A
C126        C137   1.417       .  A
C127        C128   1.376       .  A
C127        H139   1.082       .  S
C128        H140   1.082       .  S
C129        C130   1.374       .  A
C129        H141   1.082       .  S
C130        H142   1.082       .  S
C131        C132   1.374       .  A
C131        H143   1.082       .  S
C132        H144   1.082       .  S
C133        C134   1.372       .  A
C133        H145   1.082       .  S
C134        H146   1.082       .  S
C135        C209   1.499       .  S
C136        C270   1.482       .  S
C137        C190   1.497       .  S
C138        C257   1.491       .  S
N149        C154   1.357   1_565  A
N149        C153   1.354   1_565  A
N149        H181   1.039       .  S
N150        C157   1.352       .  A
N150        C158   1.356       .  A
N151        C156   1.354   1_565  A
N151        C155   1.359       .  A
N151        H182   1.038       .  S
N152        C159   1.356       .  A
N152        C160   1.352       .  A
C153        C161   1.389       .  A
C153        C169   1.422   1_545  A
C154        C170   1.416   1_545  A
C154        C162   1.384       .  A
C155        C163   1.385   1_565  A
C155        C172   1.421       .  A
C156        C171   1.424   1_545  A
C156        C164   1.390       .  A
C157        C169   1.418       .  A
C157        C165   1.387       .  A
C158        C172   1.418       .  A
C158        C166   1.386       .  A
C159        C167   1.384       .  A
C159        C170   1.415       .  A
C160        C168   1.389       .  A
C160        C171   1.419       .  A
C161        C162   1.377       .  A
C161        H173   1.082       .  S
C162        H174   1.082       .  S
C163        C164   1.377       .  A
C163        H175   1.082       .  S
C164        H176   1.082       .  S
C165        C166   1.374       .  A
C165        H177   1.082       .  S
C166        H178   1.082       .  S
C167        C168   1.373       .  A
C167        H179   1.082       .  S
C168        H180   1.082       .  S
C169        C238   1.488       .  S
C170        C193   1.494       .  S
C171        C225   1.486   1_565  S
C172        C206   1.499       .  S
C183        C188   1.387   1_545  A
C183        C184   1.408       .  A
C183        S189   1.714       .  A
C184        C185   1.408       .  A
C184        H195   1.083       .  S
C185        C194   1.380       .  A
C185        C186   1.387   1_545  A
C186        C187   1.408       .  A
C186        S192   1.713       .  A
C187        C188   1.407       .  A
C187        H196   1.083       .  S
C188        C191   1.380       .  A
S189        C190   1.726   1_545  A
C190        C191   1.390       .  A
C191        H197   1.083       .  S
S192        C193   1.724       .  A
C193        C194   1.390   1_565  A
C194        H198   1.083       .  S
C199        C204   1.386   1_565  A
C199        C200   1.408       .  A
C199        S205   1.715       .  A
C200        C201   1.408       .  A
C200        H211   1.083       .  S
C201        C210   1.380       .  A
C201        C202   1.386   1_565  A
C202        C203   1.409       .  A
C202        S208   1.716       .  A
C203        C204   1.409       .  A
C203        H212   1.083       .  S
C204        C207   1.381       .  A
S205        C206   1.726       .  A
C206        C207   1.392   1_565  A
C207        H213   1.083       .  S
S208        C209   1.727   1_545  A
C209        C210   1.390       .  A
C210        H214   1.083       .  S
C215        C220   1.387   1_565  A
C215        C216   1.398       .  A
C215        S221   1.701       .  A
C216        C217   1.398       .  A
C216        H227   1.083       .  S
C217        C226   1.367       .  A
C217        C218   1.387   1_565  A
C218        C219   1.403       .  A
C218        S224   1.708       .  A
C219        C220   1.404       .  A
C219        H228   1.083       .  S
C220        C223   1.372       .  A
S221        C222   1.721       .  A
C222        C223   1.387   1_565  A
C223        H229   1.083       .  S
S224        C225   1.727       .  A
C225        C226   1.384   1_545  A
C226        H230   1.083       .  S
C231        C236   1.387   1_545  A
C231        C232   1.405       .  A
C231        S237   1.710       .  A
C232        C233   1.405       .  A
C232        H243   1.083       .  S
C233        C242   1.374       .  A
C233        C234   1.387   1_545  A
C234        C235   1.401       .  A
C234        S240   1.706       .  A
C235        C236   1.401       .  A
C235        H244   1.083       .  S
C236        C239   1.371       .  A
S237        C238   1.726   1_545  A
C238        C239   1.386       .  A
C239        H245   1.083       .  S
S240        C241   1.723       .  A
C241        C242   1.390   1_565  A
C242        H246   1.083       .  S
C247        C252   1.387   1_544  A
C247        C248   1.402       .  A
C247        S253   1.704       .  A
C248        C249   1.402       .  A
C248        H259   1.083       .  S
C249        C258   1.372       .  A
C249        C250   1.387   1_544  A
C250        C251   1.404       .  A
C250        S256   1.708       .  A
C251        C252   1.404       .  A
C251        H260   1.083       .  S
C252        C255   1.375       .  A
S253        C254   1.724       .  A
C254        C255   1.388   1_544  A
C255        H261   1.083       .  S
S256        C257   1.727       .  A
C257        C258   1.387   1_566  A
C258        H262   1.083       .  S
C263        C268   1.388   1_564  A
C263        C264   1.401       .  A
C263        S269   1.707       .  A
C264        C265   1.402       .  A
C264        H275   1.083       .  S
C265        C274   1.371       .  A
C265        C266   1.387   1_564  A
C266        C267   1.402       .  A
C266        S272   1.706       .  A
C267        C268   1.402       .  A
C267        H276   1.083       .  S
C268        C271   1.371       .  A
S269        C270   1.721       .  A
C270        C271   1.386   1_564  A
C271        H277   1.083       .  S
S272        C273   1.724       .  A
C273        C274   1.386   1_546  A
C274        H278   1.083       .  S
C279        C284   1.390   1_455  A
C279        C280   1.392   1_545  A
C279        S285   1.696   1_545  A
C280        C281   1.393   1_565  A
C280        H291   1.083       .  S
C281        C290   1.356       .  A
C281        C282   1.389   1_455  A
C282        C283   1.394       .  A
C282        S288   1.698       .  A
C283        C284   1.395       .  A
C283        H292   1.083       .  S
C284        C287   1.359       .  A
S285        C286   1.713   1_565  A
C286        C287   1.376   1_455  A
C287        H293   1.083       .  S
S288        C289   1.717   1_655  A
C289        C290   1.378       .  A
C290        H294   1.084   1_545  S
C295        C300   1.389   1_655  A
C295        C296   1.391       .  A
C295        S301   1.697       .  A
C296        C297   1.393       .  A
C296        H307   1.083       .  S
C297        C306   1.356       .  A
C297        C298   1.389   1_655  A
C298        C299   1.395       .  A
C298        S304   1.701       .  A
C299        C300   1.398       .  A
C299        H308   1.083       .  S
C300        C303   1.359       .  A
S301        C302   1.715       .  A
C302        C303   1.380   1_655  A
C303        H309   1.083       .  S
S304        C305   1.718       .  A
C305        C306   1.375   1_455  A
C306        H310   1.083       .  S
C311        C316   1.387   1_455  A
C311        C312   1.400       .  A
C311        S317   1.704       .  A
C312        C313   1.400       .  A
C312        H323   1.083       .  S
C313        C322   1.369       .  A
C313        C314   1.387   1_455  A
C314        C315   1.402       .  A
C314        S320   1.705       .  A
C315        C316   1.402       .  A
C315        H324   1.083       .  S
C316        C319   1.372       .  A
S317        C318   1.722       .  A
C318        C319   1.386   1_455  A
C319        H325   1.083       .  S
S320        C321   1.724       .  A
C321        C322   1.384   1_655  A
C322        H326   1.083       .  S
C327        C332   1.387   1_455  A
C327        C328   1.400       .  A
C327        S333   1.705       .  A
C328        C329   1.400       .  A
C328        H339   1.083       .  S
C329        C338   1.368       .  A
C329        C330   1.387   1_455  A
C330        C331   1.404       .  A
C330        S336   1.711       .  A
C331        C332   1.405       .  A
C331        H340   1.083       .  S
C332        C335   1.374       .  A
S333        C334   1.721       .  A
C334        C335   1.388   1_455  A
C335        H341   1.083       .  S
S336        C337   1.725       .  A
C337        C338   1.385   1_655  A
C338        H342   1.083       .  S
C343        C348   1.387   1_455  A
C343        C344   1.407       .  A
C343        S349   1.714       .  A
C344        C345   1.407       .  A
C344        H355   1.083       .  S
C345        C354   1.378       .  A
C345        C346   1.387   1_455  A
C346        C347   1.404       .  A
C346        S352   1.711       .  A
C347        C348   1.405       .  A
C347        H356   1.083       .  S
C348        C351   1.375       .  A
S349        C350   1.725       .  A
C350        C351   1.387   1_455  A
C351        H357   1.083       .  S
S352        C353   1.722       .  A
C353        C354   1.389   1_655  A
C354        H358   1.083       .  S
C359        C364   1.381       .  A
C359        C360   1.409       .  A
C359        S365   1.711       .  A
C360        C361   1.409       .  A
C360        H371   1.083       .  S
C361        C370   1.379       .  A
C361        C362   1.381       .  A
C362        C363   1.408       .  A
C362        S368   1.710       .  A
C363        C364   1.408       .  A
C363        H372   1.083       .  S
C364        C367   1.377       .  A
S365        C366   1.737       .  A
C366        C367   1.400       .  A
C367        H373   1.081       .  S
S368        C369   1.737       .  A
C369        C370   1.400       .  A
C370        H374   1.082       .  S
C375        C380   1.386   1_454  A
C375        C376   1.400       .  A
C375        S381   1.703       .  A
C376        C377   1.401       .  A
C376        H387   1.083       .  S
C377        C386   1.371       .  A
C377        C378   1.387   1_454  A
C378        C379   1.404       .  A
C378        S384   1.709       .  A
C379        C380   1.404       .  A
C379        H388   1.083       .  S
C380        C383   1.372       .  A
S381        C382   1.727       .  A
C382        C383   1.391   1_454  A
C383        H389   1.083       .  S
S384        C385   1.723       .  A
C385        C386   1.384   1_656  A
C386        H390   1.083       .  S
C391        C396   1.388   1_655  A
C391        C392   1.401       .  A
C391        S397   1.704       .  A
C392        C393   1.402       .  A
C392        H403   1.083   1_554  S
C393        C402   1.372       .  A
C393        C394   1.387   1_655  A
C394        C395   1.402       .  A
C394        S400   1.705       .  A
C395        C396   1.402       .  A
C395        H404   1.083       .  S
C396        C399   1.372       .  A
S397        C398   1.721   1_655  A
C398        C399   1.384       .  A
C399        H405   1.083       .  S
S400        C401   1.723       .  A
C401        C402   1.386   1_455  A
C402        H406   1.083   1_554  S
