geometry optimzed in LAMMPS
_audit_creation_date              2020-11-30 
_audit_creation_method            'lammps2cif' 
_symmetry_space_group_name_H-M    'P1' 
_symmetry_Int_Tables_number       1 
_symmetry_cell_setting            triclinic 
loop_ 
_symmetry_equiv_pos_as_xyz 
  x,y,z 
_cell_length_a                    30.99277690502282 
_cell_length_b                    31.399962148818528 
_cell_length_c                    31.212878472770466 
_cell_angle_alpha                 90.23835196490691 
_cell_angle_beta                  90.11026061712953 
_cell_angle_gamma                 89.83230736440647 
loop_ 
_atom_site_label 
_atom_site_type_symbol 
_atom_site_fract_x 
_atom_site_fract_y 
_atom_site_fract_z 
_atom_site_charge 
C1          C  0.50174861  0.24800091  0.22595278    -0.00400
C2          C  0.00229027  0.24779221  0.26999454    -0.00400
O3          O  0.49840685  0.11857725  0.06792413    -0.87450
O4          O  0.50057254  0.37842596  0.06927919    -0.87620
O5          O  0.42710087  0.99918758  0.11764871    -0.89290
O6          O  0.06732292  0.00159673  0.12092238    -0.88040
O7          O  0.12091276  0.00018125  0.07014752    -0.87630
O8          O  0.37521451  0.00081135  0.06499776    -0.89000
O9          O  0.50070020  0.43020921  0.12147182    -0.87480
O10         O  0.49535988  0.06745105  0.12029412    -0.87070
Zr11       Zr  0.49808626  0.99849480  0.08457444     2.84310
O12         O  0.04322084  0.45541185  0.04275994    -1.09040
O13         O  0.45499798  0.04087953  0.04032938    -1.09770
C14         C  0.49665339  0.10642760  0.10742618     1.05660
C15         C  0.50109011  0.39100470  0.10881500     1.05600
C16         C  0.38761257  0.00054796  0.10445564     1.08580
C17         C  0.10718387  0.00229714  0.10912579     1.06360
H18         H  0.43727059  0.43688816  0.05914599     0.31920
O19         O  0.45525375  0.45458569  0.04138357    -1.30000
H20         H  0.05953996  0.05981356  0.06009045     0.31590
O21         O  0.04210366  0.04162102  0.04212946    -1.31670
O22         O  0.50207064  0.37667139  0.42933893    -0.87450
O23         O  0.49826054  0.11854229  0.42800859    -0.88940
O24         O  0.37751636  0.42756135  0.99793252    -0.87520
O25         O  0.12373666  0.43008038  0.00050883    -0.87570
O26         O  0.12231182  0.06750617  0.50054943    -0.87280
O27         O  0.37565344  0.06560111  0.49669297    -0.87090
O28         O  0.43152910  0.49928135  0.37584737    -0.87460
O29         O  0.07179978  0.49703728  0.37806005    -0.86920
O30         O  0.37792966  0.49632615  0.42658580    -0.87990
O31         O  0.12347032  0.49926686  0.43096250    -0.87140
O32         O  0.43074129  0.37644004  0.99746398    -0.87540
O33         O  0.42790879  0.11742497  0.49904381    -0.87270
O34         O  0.06943223  0.11888019  0.49751219    -0.86920
O35         O  0.07124021  0.37856715  0.00085585    -0.87320
O36         O  0.50108025  0.42777956  0.37677451    -0.87620
O37         O  0.50199633  0.06677001  0.37587374    -0.88960
Zr38       Zr  0.50039015  0.41225493  0.99885991     2.83100
Zr39       Zr  0.49898704  0.08384458  0.49781517     2.83500
Zr40       Zr  0.41248551  0.99706511  0.99663714     2.84090
Zr41       Zr  0.08675811  0.99856048  0.99982530     2.83360
Zr42       Zr  0.50109349  0.49753499  0.41179927     2.84220
O43         O  0.04390719  0.04121070  0.45532491    -1.09530
O44         O  0.45703864  0.45411984  0.45405512    -1.09030
C45         C  0.50236416  0.38876898  0.38981557     1.05630
C46         C  0.49965200  0.10599198  0.38853083     1.08250
C47         C  0.39086035  0.38854856  0.99758452     1.05800
C48         C  0.11096073  0.39100580  0.00090341     1.06160
C49         C  0.10927004  0.10654670  0.49935518     1.05750
C50         C  0.38828376  0.10469872  0.49812464     1.05300
C51         C  0.39166225  0.49851468  0.38766408     1.05720
C52         C  0.11124296  0.49789979  0.39143315     1.05240
H53         H  0.43830808  0.05810130  0.43602419     0.31910
O54         O  0.45620234  0.04044297  0.45406504    -1.30630
H55         H  0.06271505  0.43719397  0.43856391     0.31940
O56         O  0.04427529  0.45498244  0.45598240    -1.32010
C57         C  0.27196196  0.01767080  0.24793148    -0.00400
C58         C  0.22815322  0.01232387  0.24922459    -0.00400
C59         C  0.22796816  0.24780091  0.50613769    -0.00400
C60         C  0.27198941  0.24743120  0.50976633    -0.00400
C61         C  0.35788393  0.35488702  0.99806914    -0.07090
C62         C  0.32800896  0.35437066  0.03180534    -0.18210
C63         C  0.29898127  0.32042513  0.03680994     0.10110
C64         C  0.29896871  0.28680824  0.00636961    -0.07010
C65         C  0.32797779  0.28854033  0.47183586    -0.18250
C66         C  0.35743793  0.32174096  0.46746319     0.10140
S67         S  0.26488780  0.31945461  0.08363665    -0.33210
S68         S  0.39369968  0.31929707  0.42222682    -0.33220
H69         H  0.40204093  0.36308865  0.41949172     0.28150
H70         H  0.27626696  0.35969409  0.10001637     0.28150
H71         H  0.32898386  0.37970300  0.05544152     0.18740
H72         H  0.32810722  0.26326480  0.44809256     0.18750
C73         C  0.29687845  0.20664952  0.50927120    -0.07090
C74         C  0.29646936  0.18092042  0.47231985    -0.18210
C75         C  0.32459567  0.14613679  0.46799914     0.10110
C76         C  0.35497315  0.13790182  0.50091242    -0.07010
C77         C  0.35442242  0.16277197  0.03823276    -0.18250
C78         C  0.32510266  0.19614701  0.04316348     0.10140
S79         S  0.32038938  0.11533447  0.41907622    -0.33210
S80         S  0.32471520  0.22369677  0.09376986    -0.33220
H81         H  0.27964979  0.22839374  0.09461739     0.28150
H82         H  0.35786575  0.09067539  0.42295822     0.28150
H83         H  0.27503459  0.18885798  0.44606117     0.18740
H84         H  0.37678307  0.15577027  0.06406063     0.18750
C85         C  0.14397494  0.35727430  0.00287567    -0.07090
C86         C  0.13858926  0.32582461  0.03397552    -0.18210
C87         C  0.16744477  0.29199570  0.03756511     0.10110
C88         C  0.20197374  0.28794325  0.00820549    -0.07010
C89         C  0.20830159  0.32032287  0.47786260    -0.18250
C90         C  0.17986177  0.35500877  0.47498887     0.10140
S91         S  0.15885859  0.25589519  0.08137600    -0.33210
S92         S  0.19010759  0.39360813  0.43361277    -0.33220
H93         H  0.14679106  0.40405331  0.42595206     0.28150
H94         H  0.20277830  0.24762196  0.08865705     0.28150
H95         H  0.11185983  0.32800624  0.05627224     0.18740
H96         H  0.23425721  0.31754852  0.45483761     0.18750
C97         C  0.14258147  0.13997193  0.50006296    -0.07090
C98         C  0.14223792  0.17029976  0.46732062    -0.18210
C99         C  0.17245987  0.20320481  0.46648412     0.10110
C100        C  0.20259603  0.20756354  0.50035187    -0.07010
C101        C  0.20449112  0.17571005  0.03182127    -0.18250
C102        C  0.17486745  0.14215069  0.03211332     0.10140
S103        S  0.17171550  0.23775017  0.42052897    -0.33210
S104        S  0.17832685  0.10504858  0.07590517    -0.33220
H105        H  0.13378877  0.09813831  0.07869176     0.28150
H106        H  0.21642100  0.24537249  0.42084593     0.28150
H107        H  0.11862814  0.16790177  0.44174848     0.18740
H108        H  0.22739204  0.17840032  0.05791842     0.18750
C109        C  0.29859478  0.51615687  0.28783035    -0.07090
C110        C  0.29706092  0.47925462  0.31327379    -0.18210
C111        C  0.32736876  0.47216185  0.34572808     0.10110
C112        C  0.35932768  0.50298500  0.35374706    -0.07010
C113        C  0.36078114  0.03985648  0.32888806    -0.18250
C114        C  0.33113621  0.04673298  0.29604521     0.10140
S115        S  0.32604687  0.42180288  0.37317358    -0.33210
S116        S  0.33803083  0.09456622  0.26519578    -0.33220
H117        H  0.29405291  0.10193836  0.25915849     0.28150
H118        H  0.37107573  0.41823341  0.37731936     0.28150
H119        H  0.27397810  0.45443516  0.30589946     0.18740
H120        H  0.38543118  0.06356397  0.33511121     0.18750
C121        C  0.14508706  0.49801457  0.35864617    -0.07090
C122        C  0.17266229  0.03322480  0.35696323    -0.18210
C123        C  0.20071556  0.03900474  0.32244893     0.10110
C124        C  0.20344196  0.50737530  0.29005297    -0.07010
C125        C  0.17753016  0.47089884  0.29352368    -0.18250
C126        C  0.14803593  0.46611462  0.32678961     0.10140
S127        S  0.22815603  0.08923245  0.32002064    -0.33210
S128        S  0.11469025  0.41904367  0.32536927    -0.33220
H129        H  0.10028592  0.42093901  0.36771180     0.28150
H130        H  0.21714046  0.09649509  0.27713610     0.28150
H131        H  0.16995116  0.05804941  0.38107857     0.18740
H132        H  0.17895946  0.44649289  0.26894307     0.18750
C133        C  0.13967790  0.00656930  0.14306700    -0.07090
C134        C  0.17263307  0.47599899  0.14570148    -0.18210
C135        C  0.20205889  0.47616304  0.17979107     0.10110
C136        C  0.20077014  0.00998902  0.21000867    -0.07010
C137        C  0.16779806  0.04054377  0.20686439    -0.18250
C138        C  0.13715682  0.03910519  0.17431057     0.10140
S139        S  0.23632559  0.42986308  0.18462954    -0.33210
S140        S  0.09555409  0.07950338  0.17569975    -0.33220
H141        H  0.08659648  0.08001608  0.13174860     0.28150
H142        H  0.24443107  0.43326216  0.22874102     0.28150
H143        H  0.17364410  0.45016273  0.12256354     0.18740
H144        H  0.16527728  0.06550677  0.23078548     0.18750
C145        C  0.29728710  0.01323489  0.20733664    -0.07090
C146        C  0.32623233  0.47857802  0.20560863    -0.18210
C147        C  0.35380173  0.47220619  0.17107428     0.10110
C148        C  0.35413458  0.00195070  0.13758296    -0.07010
C149        C  0.32453455  0.03579731  0.13791336    -0.18250
C150        C  0.29610145  0.04204402  0.17230298     0.10140
S151        S  0.38738168  0.42509210  0.17134030    -0.33210
S152        S  0.26226354  0.08883832  0.16913552    -0.33220
H153        H  0.24403035  0.08699352  0.20974479     0.28150
H154        H  0.38804540  0.41958200  0.12658623     0.28150
H155        H  0.32701611  0.45561146  0.23140681     0.18740
H156        H  0.32496712  0.05871727  0.11202622     0.18750
C157        C  0.50104232  0.20771435  0.29613695    -0.07090
C158        C  0.46722541  0.20430251  0.32584407    -0.18150
C159        C  0.46562769  0.17125977  0.35556640     0.10110
C160        C  0.49792009  0.13944993  0.35532281    -0.07010
C161        C  0.03097764  0.14162030  0.32474569    -0.18250
C162        C  0.03386215  0.17609359  0.29635449     0.10140
S163        S  0.42172936  0.17203670  0.39334931    -0.33210
S164        S  0.08228652  0.17961454  0.26489020    -0.33220
H165        H  0.08611670  0.22392192  0.26931505     0.28150
H166        H  0.41824374  0.12756529  0.39586190     0.28150
H167        H  0.44223351  0.22849378  0.32675811     0.18740
H168        H  0.05643400  0.11787048  0.32502546     0.18750
C169        C  0.50294302  0.28762369  0.29649960    -0.07090
C170        C  0.03667713  0.29132908  0.32639838    -0.18210
C171        C  0.03755655  0.32383323  0.35697512     0.10110
C172        C  0.50466367  0.35509141  0.35688658    -0.07010
C173        C  0.47155426  0.35251068  0.32623158    -0.18250
C174        C  0.46926589  0.31828519  0.29728024     0.10140
S175        S  0.08105157  0.32195608  0.39564232    -0.33210
S176        S  0.42065557  0.31408088  0.26568783    -0.33220
H177        H  0.42100067  0.26953949  0.26154015     0.28150
H178        H  0.07954335  0.36444854  0.40907765     0.28150
H179        H  0.06198080  0.26747951  0.32709277     0.18740
H180        H  0.44563570  0.37577373  0.32683943     0.18750
C181        C  0.50046403  0.35735769  0.14182879    -0.07090
C182        C  0.46938141  0.32543404  0.13755795    -0.18210
C183        C  0.46724485  0.29148112  0.16633232     0.10110
C184        C  0.49777144  0.28835045  0.20014059    -0.07010
C185        C  0.02766312  0.32167326  0.20565731    -0.18250
C186        C  0.02937850  0.35597116  0.17692357     0.10140
S187        S  0.42369493  0.25374567  0.16032598    -0.33210
S188        S  0.07081410  0.39536933  0.18535539    -0.33220
H189        H  0.07924703  0.40231011  0.14168051     0.28150
H190        H  0.41047784  0.26640867  0.11916370     0.28150
H191        H  0.44620463  0.32752557  0.11162150     0.18740
H192        H  0.05154546  0.31976563  0.23094703     0.18750
C193        C  0.50481104  0.20766326  0.20023353    -0.07090
C194        C  0.47345686  0.17567604  0.20520702    -0.18210
C195        C  0.46976551  0.14218508  0.17553075     0.10110
C196        C  0.49838925  0.14011149  0.14038684    -0.07010
C197        C  0.03083189  0.17071541  0.13662194    -0.18250
C198        C  0.03481118  0.20381945  0.16620563     0.10140
S199        S  0.42586049  0.10527035  0.18235327    -0.33210
S200        S  0.07921776  0.23986124  0.15823306    -0.33220
H201        H  0.08394627  0.25195806  0.20121421     0.28150
H202        H  0.41732241  0.09981661  0.13838993     0.28150
H203        H  0.44962197  0.17853723  0.23039367     0.18740
H204        H  0.05374910  0.16852320  0.11047630     0.18750
C205        C  0.50174583  0.24800163  0.72595314    -0.00400
C206        C  0.00229335  0.24779129  0.76999480    -0.00400
O207        O  0.49839918  0.11857966  0.56792473    -0.87450
O208        O  0.50055710  0.37842823  0.56927934    -0.87620
O209        O  0.42709379  0.99919271  0.61764828    -0.89290
O210        O  0.06731638  0.00159934  0.62092321    -0.88040
O211        O  0.12090537  0.00018222  0.57014766    -0.87630
O212        O  0.37520655  0.00081964  0.56499813    -0.89000
O213        O  0.50068999  0.43021147  0.62147193    -0.87480
O214        O  0.49535298  0.06745338  0.62029472    -0.87070
Zr215      Zr  0.49807876  0.99849758  0.58457487     2.84310
O216        O  0.04321008  0.45541303  0.54275925    -1.09040
O217        O  0.45499038  0.04088403  0.54033090    -1.09770
C218        C  0.49664621  0.10642985  0.60742670     1.05660
C219        C  0.50107717  0.39100684  0.60881525     1.05600
C220        C  0.38760558  0.00055488  0.60445548     1.08580
C221        C  0.10717747  0.00229910  0.60912643     1.06360
H222        H  0.43725886  0.43689433  0.55914678     0.31920
O223        O  0.45524274  0.45459119  0.54138435    -1.30000
H224        H  0.05953245  0.05981518  0.56009006     0.31590
O225        O  0.04209547  0.04162299  0.54212904    -1.31670
O226        O  0.50208740  0.37666790  0.92933940    -0.87450
O227        O  0.49826915  0.11853879  0.92800796    -0.88940
O228        O  0.37750128  0.42757136  0.49793299    -0.87520
O229        O  0.12372222  0.43007899  0.50050767    -0.87570
O230        O  0.12232042  0.06750598  0.00055067    -0.87280
O231        O  0.37566157  0.06559285  0.99669223    -0.87090
O232        O  0.43153737  0.49927706  0.87584581    -0.87460
O233        O  0.07180869  0.49703516  0.87806098    -0.86920
O234        O  0.37793825  0.49631866  0.92658429    -0.87990
O235        O  0.12347929  0.49926625  0.93096347    -0.87140
O236        O  0.43072390  0.37644783  0.49746426    -0.87540
O237        O  0.42791571  0.11741812  0.99904300    -0.87270
O238        O  0.06943992  0.11887896  0.99751312    -0.86920
O239        O  0.07122365  0.37856765  0.50085397    -0.87320
O240        O  0.50109263  0.42777625  0.87677516    -0.87620
O241        O  0.50200454  0.06676686  0.87587279    -0.88960
Zr242      Zr  0.50037566  0.41225824  0.49886003     2.83100
Zr243      Zr  0.49899512  0.08384121  0.99781468     2.83500
Zr244      Zr  0.41247604  0.99707228  0.49663806     2.84090
Zr245      Zr  0.08674870  0.99856123  0.49982522     2.83360
Zr246      Zr  0.50110245  0.49753181  0.91179884     2.84220
O247        O  0.04391584  0.04120849  0.95532422    -1.09530
O248        O  0.45705043  0.45411431  0.95405489    -1.09030
C249        C  0.50237910  0.38876578  0.88981620     1.05630
C250        C  0.49966016  0.10598882  0.88853005     1.08250
C251        C  0.39084338  0.38855798  0.49758440     1.05800
C252        C  0.11094450  0.39100501  0.50090110     1.06160
C253        C  0.10927808  0.10654637  0.99935682     1.05750
C254        C  0.38829113  0.10469065  0.99812408     1.05300
C255        C  0.39167028  0.49850892  0.88766231     1.05720
C256        C  0.11125162  0.49789851  0.89143442     1.05240
H257        H  0.43831605  0.05809603  0.93602402     0.31910
O258        O  0.45621069  0.04043822  0.95406494    -1.30630
H259        H  0.06272767  0.43719259  0.93856342     0.31940
O260        O  0.04428715  0.45498049  0.95598148    -1.32010
C261        C  0.27196244  0.01767524  0.74793304    -0.00400
C262        C  0.22815367  0.01232832  0.74922463    -0.00400
C263        C  0.22798115  0.24779851  0.00614330    -0.00400
C264        C  0.27200252  0.24742523  0.00977073    -0.00400
C265        C  0.35786554  0.35489744  0.49806661    -0.07090
C266        C  0.32798856  0.35438077  0.53180117    -0.18210
C267        C  0.29896163  0.32043425  0.53680474     0.10110
C268        C  0.29895235  0.28681650  0.50636524    -0.07010
C269        C  0.32799374  0.28853062  0.97183962    -0.18250
C270        C  0.35745491  0.32173032  0.96746609     0.10140
S271        S  0.26486571  0.31946332  0.58362971    -0.33210
S272        S  0.39371553  0.31928596  0.92222887    -0.33220
H273        H  0.40205103  0.36307851  0.91948982     0.28150
H274        H  0.27623367  0.35970867  0.60000252     0.28150
H275        H  0.32896190  0.37971303  0.55543749     0.18740
H276        H  0.32812144  0.26325524  0.94809618     0.18750
C277        C  0.29688822  0.20664176  0.00927475    -0.07090
C278        C  0.29647872  0.18091463  0.97232199    -0.18210
C279        C  0.32460416  0.14613053  0.96799976     0.10110
C280        C  0.35498024  0.13789275  0.00091345    -0.07010
C281        C  0.35441568  0.16278377  0.53823005    -0.18250
C282        C  0.32509439  0.19615791  0.54315968     0.10140
S283        S  0.32039946  0.11533187  0.91907436    -0.33210
S284        S  0.32470594  0.22371012  0.59376476    -0.33220
H285        H  0.27964014  0.22840404  0.59461291     0.28150
H286        H  0.35787365  0.09066967  0.92295746     0.28150
H287        H  0.27504499  0.18885463  0.94606323     0.18740
H288        H  0.37677713  0.15578434  0.56405784     0.18750
C289        C  0.14395731  0.35727272  0.50287083    -0.07090
C290        C  0.13857127  0.32582150  0.53396894    -0.18210
C291        C  0.16742761  0.29199340  0.53755781     0.10110
C292        C  0.20195761  0.28794343  0.50819904    -0.07010
C293        C  0.20831872  0.32032213  0.97786854    -0.18250
C294        C  0.17987959  0.35500877  0.97499392     0.10140
S295        S  0.15884189  0.25589139  0.58136743    -0.33210
S296        S  0.19012605  0.39360662  0.93361662    -0.33220
H297        H  0.14680945  0.40405076  0.92595461     0.28150
H298        H  0.20276209  0.24762289  0.58865138     0.28150
H299        H  0.11184154  0.32800181  0.55626544     0.18740
H300        H  0.23427403  0.31754639  0.95484336     0.18750
C301        C  0.14258938  0.13997224  0.00006644    -0.07090
C302        C  0.14224659  0.17030138  0.96732523    -0.18210
C303        C  0.17246962  0.20320574  0.96648972     0.10110
C304        C  0.20260588  0.20756283  0.00035760    -0.07010
C305        C  0.20448262  0.17571151  0.53181626    -0.18250
C306        C  0.17485949  0.14215179  0.53210967     0.10140
S307        S  0.17172730  0.23775165  0.92053500    -0.33210
S308        S  0.17831866  0.10505170  0.57590334    -0.33220
H309        H  0.13378044  0.09814207  0.57869068     0.28150
H310        H  0.21643329  0.24537127  0.92085187     0.28150
H311        H  0.11863705  0.16790458  0.94175279     0.18740
H312        H  0.22738339  0.17840330  0.55791342     0.18750
C313        C  0.29859661  0.51615846  0.78783215    -0.07090
C314        C  0.29706503  0.47925377  0.81327251    -0.18210
C315        C  0.32737538  0.47215793  0.84572450     0.10110
C316        C  0.35933456  0.50298066  0.85374525    -0.07010
C317        C  0.36078569  0.03985446  0.82888940    -0.18250
C318        C  0.33113856  0.04673389  0.79604865     0.10140
S319        S  0.32605582  0.42179595  0.87316480    -0.33210
S320        S  0.33803129  0.09457044  0.76520393    -0.33220
H321        H  0.29405349  0.10193855  0.75916132     0.28150
H322        H  0.37108460  0.41822836  0.87731371     0.28150
H323        H  0.27398206  0.45443477  0.80589709     0.18740
H324        H  0.38543554  0.06356187  0.83511362     0.18750
C325        C  0.14509504  0.49801409  0.85864805    -0.07090
C326        C  0.17266666  0.03322676  0.85696358    -0.18210
C327        C  0.20071766  0.03900827  0.82244828     0.10110
C328        C  0.20344451  0.50737852  0.79005285    -0.07010
C329        C  0.17753696  0.47089956  0.79352524    -0.18250
C330        C  0.14804546  0.46611320  0.82679277     0.10140
S331        S  0.22815488  0.08923763  0.82001838    -0.33210
S332        S  0.11470525  0.41903846  0.82537618    -0.33220
H333        H  0.10029932  0.42093656  0.86771802     0.28150
H334        H  0.21713243  0.09650176  0.77713589     0.28150
H335        H  0.16995417  0.05805172  0.88107844     0.18740
H336        H  0.17896749  0.44649329  0.76894502     0.18750
C337        C  0.13967288  0.00657177  0.64306779    -0.07090
C338        C  0.17263022  0.47600345  0.64570069    -0.18210
C339        C  0.20205767  0.47616825  0.67978942     0.10110
C340        C  0.20076899  0.00999340  0.71000833    -0.07010
C341        C  0.16779454  0.04054618  0.70686560    -0.18250
C342        C  0.13715172  0.03910664  0.67431263     0.10140
S343        S  0.23632600  0.42986929  0.68462531    -0.33210
S344        S  0.09554686  0.07950258  0.67570405    -0.33220
H345        H  0.08659165  0.08001868  0.63175235     0.28150
H346        H  0.24443256  0.43326723  0.72873664     0.28150
H347        H  0.17364189  0.45016780  0.62256212     0.18740
H348        H  0.16527300  0.06550840  0.73078738     0.18750
C349        C  0.29728625  0.01324119  0.70733837    -0.07090
C350        C  0.32622913  0.47858274  0.70560773    -0.18210
C351        C  0.35379571  0.47221074  0.67107175     0.10110
C352        C  0.35412887  0.00195744  0.63758270    -0.07010
C353        C  0.32453143  0.03580602  0.63791579    -0.18250
C354        C  0.29610012  0.04205229  0.67230650     0.10140
S355        S  0.38737145  0.42509369  0.67133251    -0.33210
S356        S  0.26226390  0.08884809  0.66914244    -0.33220
H357        H  0.24402676  0.08699846  0.70974959     0.28150
H358        H  0.38803162  0.41958659  0.62657802     0.28150
H359        H  0.32701255  0.45561464  0.73140453     0.18740
H360        H  0.32496458  0.05872740  0.61202992     0.18750
C361        C  0.50104658  0.20771277  0.79613678    -0.07090
C362        C  0.46723268  0.20430201  0.82584746    -0.18150
C363        C  0.46563629  0.17125891  0.85556948     0.10110
C364        C  0.49792696  0.13944733  0.85532228    -0.07010
C365        C  0.03098139  0.14161652  0.82474164    -0.18250
C366        C  0.03386472  0.17609018  0.79635051     0.10140
S367        S  0.42174166  0.17203773  0.89335669    -0.33210
S368        S  0.08228591  0.17960907  0.76488122    -0.33220
H369        H  0.08611920  0.22391605  0.76930736     0.28150
H370        H  0.41825312  0.12756648  0.89586847     0.28150
H371        H  0.44224207  0.22849445  0.82676456     0.18740
H372        H  0.05643654  0.11786540  0.82501841     0.18750
C373        C  0.50294933  0.28762194  0.79650026    -0.07090
C374        C  0.03668727  0.29132727  0.82639478    -0.18210
C375        C  0.03757008  0.32383108  0.85697179     0.10110
C376        C  0.50467673  0.35508883  0.85688705    -0.07010
C377        C  0.47156364  0.35250804  0.82623613    -0.18250
C378        C  0.46927193  0.31828285  0.79728516     0.10140
S379        S  0.08106976  0.32195373  0.89563400    -0.33210
S380        S  0.42065743  0.31407818  0.76569908    -0.33220
H381        H  0.42100273  0.26953694  0.76154991     0.28150
H382        H  0.07955725  0.36444321  0.90907846     0.28150
H383        H  0.06199121  0.26747785  0.82708573     0.18740
H384        H  0.44564479  0.37577072  0.82684731     0.18750
C385        C  0.50045265  0.35735979  0.64182957    -0.07090
C386        C  0.46937012  0.32543567  0.63756112    -0.18210
C387        C  0.46723614  0.29148259  0.66633583     0.10110
C388        C  0.49776549  0.28835189  0.70014178    -0.07010
C389        C  0.02765688  0.32167531  0.70565629    -0.18250
C390        C  0.02936943  0.35597348  0.67692256     0.10140
S391        S  0.42368593  0.25374698  0.66033306    -0.33210
S392        S  0.07080472  0.39537243  0.68535193    -0.33220
H393        H  0.07923649  0.40231139  0.64167652     0.28150
H394        H  0.41046771  0.26640813  0.61917059     0.28150
H395        H  0.44619144  0.32752691  0.61162633     0.18740
H396        H  0.05154131  0.31976800  0.73094406     0.18750
C397        C  0.50480645  0.20766486  0.70023315    -0.07090
C398        C  0.47345272  0.17567754  0.70520815    -0.18210
C399        C  0.46976030  0.14218675  0.67553200     0.10110
C400        C  0.49838275  0.14011354  0.64038707    -0.07010
C401        C  0.03082493  0.17071769  0.63662068    -0.18250
C402        C  0.03480503  0.20382170  0.66620404     0.10140
S403        S  0.42585572  0.10527181  0.68235611    -0.33210
S404        S  0.07921062  0.23986423  0.65822980    -0.33220
H405        H  0.08394121  0.25196067  0.70121085     0.28150
H406        H  0.41731603  0.09981818  0.63839306     0.28150
H407        H  0.44961916  0.17853845  0.73039610     0.18740
H408        H  0.05374112  0.16852571  0.61047414     0.18750
C409        C  0.50174860  0.74800091  0.22595278    -0.00400
C410        C  0.00229026  0.74779221  0.26999454    -0.00400
O411        O  0.49840683  0.61857724  0.06792414    -0.87450
O412        O  0.50057254  0.87842596  0.06927920    -0.87620
O413        O  0.42710087  0.49918758  0.11764872    -0.89290
O414        O  0.06732291  0.50159671  0.12092239    -0.88040
O415        O  0.12091276  0.50018123  0.07014754    -0.87630
O416        O  0.37521450  0.50081136  0.06499777    -0.89000
O417        O  0.50070019  0.93020922  0.12147183    -0.87480
O418        O  0.49535986  0.56745104  0.12029412    -0.87070
Zr419      Zr  0.49808625  0.49849479  0.08457444     2.84310
O420        O  0.04322084  0.95541185  0.04275993    -1.09040
O421        O  0.45499797  0.54087953  0.04032939    -1.09770
C422        C  0.49665337  0.60642759  0.10742619     1.05660
C423        C  0.50109010  0.89100470  0.10881501     1.05600
C424        C  0.38761257  0.50054797  0.10445566     1.08580
C425        C  0.10718386  0.50229711  0.10912580     1.06360
H426        H  0.43727059  0.93688816  0.05914599     0.31920
O427        O  0.45525376  0.95458569  0.04138357    -1.30000
H428        H  0.05953996  0.55981356  0.06009046     0.31590
O429        O  0.04210367  0.54162102  0.04212947    -1.31670
O430        O  0.50207064  0.87667139  0.42933893    -0.87450
O431        O  0.49826053  0.61854229  0.42800860    -0.88940
O432        O  0.37751637  0.92756136  0.99793251    -0.87520
O433        O  0.12373666  0.93008038  0.00050880    -0.87570
O434        O  0.12231182  0.56750617  0.50054945    -0.87280
O435        O  0.37565344  0.56560111  0.49669300    -0.87090
O436        O  0.43152910  0.99928133  0.37584737    -0.87460
O437        O  0.07179977  0.99703728  0.37806005    -0.86920
O438        O  0.37792965  0.99632614  0.42658579    -0.87990
O439        O  0.12347032  0.99926686  0.43096249    -0.87140
O440        O  0.43074130  0.87644004  0.99746398    -0.87540
O441        O  0.42790879  0.61742497  0.49904383    -0.87270
O442        O  0.06943223  0.61888019  0.49751219    -0.86920
O443        O  0.07124020  0.87856716  0.00085584    -0.87320
O444        O  0.50108026  0.92777956  0.37677451    -0.87620
O445        O  0.50199632  0.56677001  0.37587375    -0.88960
Zr446      Zr  0.50039016  0.91225493  0.99885991     2.83100
Zr447      Zr  0.49898704  0.58384459  0.49781518     2.83500
Zr448      Zr  0.41248549  0.49706510  0.99663714     2.84090
Zr449      Zr  0.08675813  0.49856047  0.99982531     2.83360
Zr450      Zr  0.50109349  0.99753499  0.41179927     2.84220
O451        O  0.04390719  0.54121070  0.45532491    -1.09530
O452        O  0.45703864  0.95411984  0.45405511    -1.09030
C453        C  0.50236415  0.88876897  0.38981556     1.05630
C454        C  0.49965199  0.60599198  0.38853084     1.08250
C455        C  0.39086035  0.88854856  0.99758451     1.05800
C456        C  0.11096072  0.89100581  0.00090339     1.06160
C457        C  0.10927003  0.60654670  0.49935519     1.05750
C458        C  0.38828376  0.60469872  0.49812467     1.05300
C459        C  0.39166225  0.99851466  0.38766407     1.05720
C460        C  0.11124295  0.99789979  0.39143313     1.05240
H461        H  0.43830808  0.55810130  0.43602420     0.31910
O462        O  0.45620234  0.54044297  0.45406505    -1.30630
H463        H  0.06271505  0.93719398  0.43856390     0.31940
O464        O  0.04427529  0.95498244  0.45598240    -1.32010
C465        C  0.27196196  0.51767086  0.24793150    -0.00400
C466        C  0.22815322  0.51232391  0.24922462    -0.00400
C467        C  0.22796816  0.74780091  0.50613771    -0.00400
C468        C  0.27198941  0.74743120  0.50976635    -0.00400
C469        C  0.35788393  0.85488702  0.99806914    -0.07090
C470        C  0.32800896  0.85437068  0.03180533    -0.18210
C471        C  0.29898127  0.82042514  0.03680994     0.10110
C472        C  0.29896871  0.78680825  0.00636961    -0.07010
C473        C  0.32797779  0.78854031  0.47183587    -0.18250
C474        C  0.35743792  0.82174095  0.46746319     0.10140
S475        S  0.26488780  0.81945463  0.08363665    -0.33210
S476        S  0.39369967  0.81929705  0.42222682    -0.33220
H477        H  0.40204096  0.86308862  0.41949172     0.28150
H478        H  0.27626696  0.85969412  0.10001636     0.28150
H479        H  0.32898386  0.87970302  0.05544151     0.18740
H480        H  0.32810722  0.76326479  0.44809258     0.18750
C481        C  0.29687844  0.70664952  0.50927123    -0.07090
C482        C  0.29646936  0.68092041  0.47231988    -0.18210
C483        C  0.32459567  0.64613678  0.46799917     0.10110
C484        C  0.35497315  0.63790182  0.50091245    -0.07010
C485        C  0.35442241  0.66277197  0.03823278    -0.18250
C486        C  0.32510265  0.69614702  0.04316350     0.10140
S487        S  0.32038939  0.61533447  0.41907626    -0.33210
S488        S  0.32471519  0.72369678  0.09376988    -0.33220
H489        H  0.27964978  0.72839376  0.09461740     0.28150
H490        H  0.35786576  0.59067540  0.42295825     0.28150
H491        H  0.27503459  0.68885797  0.44606120     0.18740
H492        H  0.37678306  0.65577027  0.06406066     0.18750
C493        C  0.14397493  0.85727431  0.00287566    -0.07090
C494        C  0.13858926  0.82582462  0.03397552    -0.18210
C495        C  0.16744477  0.79199572  0.03756512     0.10110
C496        C  0.20197373  0.78794326  0.00820549    -0.07010
C497        C  0.20830159  0.82032286  0.47786259    -0.18250
C498        C  0.17986177  0.85500876  0.47498885     0.10140
S499        S  0.15885859  0.75589522  0.08137602    -0.33210
S500        S  0.19010758  0.89360809  0.43361272    -0.33220
H501        H  0.14679105  0.90405329  0.42595203     0.28150
H502        H  0.20277831  0.74762200  0.08865706     0.28150
H503        H  0.11185984  0.82800626  0.05627225     0.18740
H504        H  0.23425720  0.81754850  0.45483759     0.18750
C505        C  0.14258146  0.63997193  0.50006298    -0.07090
C506        C  0.14223793  0.67029975  0.46732063    -0.18210
C507        C  0.17245988  0.70320480  0.46648413     0.10110
C508        C  0.20259603  0.70756354  0.50035189    -0.07010
C509        C  0.20449112  0.67571007  0.03182129    -0.18250
C510        C  0.17486745  0.64215071  0.03211335     0.10140
S511        S  0.17171553  0.73775014  0.42052897    -0.33210
S512        S  0.17832683  0.60504861  0.07590521    -0.33220
H513        H  0.13378874  0.59813835  0.07869179     0.28150
H514        H  0.21642103  0.74537246  0.42084594     0.28150
H515        H  0.11862816  0.66790175  0.44174848     0.18740
H516        H  0.22739203  0.67840035  0.05791846     0.18750
C517        C  0.29859480  0.01615682  0.28783031    -0.07090
C518        C  0.29706083  0.97925465  0.31327388    -0.18210
C519        C  0.32736864  0.97216191  0.34572820     0.10110
C520        C  0.35932768  0.00298497  0.35374705    -0.07010
C521        C  0.36078102  0.53985661  0.32888820    -0.18250
C522        C  0.33113609  0.54673311  0.29604535     0.10140
S523        S  0.32604653  0.92180306  0.37317393    -0.33210
S524        S  0.33803063  0.59456644  0.26519603    -0.33220
H525        H  0.29405272  0.60193834  0.25915844     0.28150
H526        H  0.37107537  0.91823344  0.37731980     0.28150
H527        H  0.27397793  0.95443524  0.30589964     0.18740
H528        H  0.38543098  0.56356415  0.33511144     0.18750
C529        C  0.14508704  0.99801455  0.35864615    -0.07090
C530        C  0.17266218  0.53322491  0.35696317    -0.18210
C531        C  0.20071546  0.53900485  0.32244888     0.10110
C532        C  0.20344194  0.00737526  0.29005293    -0.07010
C533        C  0.17752999  0.97089889  0.29352356    -0.18250
C534        C  0.14803576  0.96611469  0.32678948     0.10140
S535        S  0.22815580  0.58923263  0.32002050    -0.33210
S536        S  0.11468987  0.91904389  0.32536901    -0.33220
H537        H  0.10028597  0.92093896  0.36771170     0.28150
H538        H  0.21714025  0.59649517  0.27713594     0.28150
H539        H  0.16995094  0.55804959  0.38107844     0.18740
H540        H  0.17895918  0.94649300  0.26894287     0.18750
C541        C  0.13967789  0.50656928  0.14306703    -0.07090
C542        C  0.17263305  0.97599898  0.14570147    -0.18210
C543        C  0.20205888  0.97616302  0.17979105     0.10110
C544        C  0.20077012  0.50998902  0.21000871    -0.07010
C545        C  0.16779800  0.54054373  0.20686445    -0.18250
C546        C  0.13715677  0.53910515  0.17431063     0.10140
S547        S  0.23632554  0.92986303  0.18462955    -0.33210
S548        S  0.09555400  0.57950329  0.17569982    -0.33220
H549        H  0.08659648  0.58001607  0.13174865     0.28150
H550        H  0.24443098  0.93326211  0.22874103     0.28150
H551        H  0.17364406  0.95016271  0.12256354     0.18740
H552        H  0.16527717  0.56550672  0.23078555     0.18750
C553        C  0.29728710  0.51323495  0.20733667    -0.07090
C554        C  0.32623233  0.97857796  0.20560860    -0.18210
C555        C  0.35380174  0.97220616  0.17107425     0.10110
C556        C  0.35413458  0.50195073  0.13758299    -0.07010
C557        C  0.32453457  0.53579736  0.13791338    -0.18250
C558        C  0.29610147  0.54204408  0.17230301     0.10140
S559        S  0.38738173  0.92509209  0.17134029    -0.33210
S560        S  0.26226356  0.58883838  0.16913551    -0.33220
H561        H  0.24403021  0.58699349  0.20974471     0.28150
H562        H  0.38804546  0.91958198  0.12658622     0.28150
H563        H  0.32701612  0.95561141  0.23140678     0.18740
H564        H  0.32496715  0.55871731  0.11202624     0.18750
C565        C  0.50104231  0.70771435  0.29613695    -0.07090
C566        C  0.46722541  0.70430251  0.32584408    -0.18150
C567        C  0.46562769  0.67125978  0.35556641     0.10110
C568        C  0.49792008  0.63944993  0.35532282    -0.07010
C569        C  0.03097763  0.64162030  0.32474569    -0.18250
C570        C  0.03386214  0.67609359  0.29635449     0.10140
S571        S  0.42172937  0.67203672  0.39334934    -0.33210
S572        S  0.08228651  0.67961454  0.26489020    -0.33220
H573        H  0.08611669  0.72392192  0.26931505     0.28150
H574        H  0.41824374  0.62756531  0.39586193     0.28150
H575        H  0.44223351  0.72849379  0.32675812     0.18740
H576        H  0.05643399  0.61787048  0.32502546     0.18750
C577        C  0.50294301  0.78762368  0.29649960    -0.07090
C578        C  0.03667713  0.79132909  0.32639837    -0.18210
C579        C  0.03755656  0.82383324  0.35697511     0.10110
C580        C  0.50466367  0.85509141  0.35688658    -0.07010
C581        C  0.47155426  0.85251068  0.32623158    -0.18250
C582        C  0.46926588  0.81828519  0.29728024     0.10140
S583        S  0.08105159  0.82195610  0.39564229    -0.33210
S584        S  0.42065556  0.81408087  0.26568783    -0.33220
H585        H  0.42100066  0.76953948  0.26154015     0.28150
H586        H  0.07954335  0.86444856  0.40907763     0.28150
H587        H  0.06198080  0.76747952  0.32709275     0.18740
H588        H  0.44563569  0.87577372  0.32683943     0.18750
C589        C  0.50046402  0.85735769  0.14182879    -0.07090
C590        C  0.46938140  0.82543404  0.13755796    -0.18210
C591        C  0.46724484  0.79148112  0.16633232     0.10110
C592        C  0.49777143  0.78835045  0.20014059    -0.07010
C593        C  0.02766312  0.82167326  0.20565731    -0.18250
C594        C  0.02937851  0.85597116  0.17692357     0.10140
S595        S  0.42369492  0.75374567  0.16032597    -0.33210
S596        S  0.07081411  0.89536932  0.18535539    -0.33220
H597        H  0.07924704  0.90231011  0.14168050     0.28150
H598        H  0.41047785  0.76640866  0.11916369     0.28150
H599        H  0.44620463  0.82752557  0.11162150     0.18740
H600        H  0.05154546  0.81976562  0.23094703     0.18750
C601        C  0.50481103  0.70766325  0.20023353    -0.07090
C602        C  0.47345685  0.67567604  0.20520702    -0.18210
C603        C  0.46976549  0.64218507  0.17553075     0.10110
C604        C  0.49838924  0.64011148  0.14038685    -0.07010
C605        C  0.03083189  0.67071541  0.13662194    -0.18250
C606        C  0.03481118  0.70381945  0.16620563     0.10140
S607        S  0.42586047  0.60527035  0.18235328    -0.33210
S608        S  0.07921776  0.73986124  0.15823306    -0.33220
H609        H  0.08394626  0.75195806  0.20121421     0.28150
H610        H  0.41732240  0.59981660  0.13838994     0.28150
H611        H  0.44962195  0.67853723  0.23039368     0.18740
H612        H  0.05374910  0.66852319  0.11047630     0.18750
C613        C  0.50174583  0.74800163  0.72595314    -0.00400
C614        C  0.00229337  0.74779128  0.76999480    -0.00400
O615        O  0.49839918  0.61857966  0.56792474    -0.87450
O616        O  0.50055709  0.87842823  0.56927933    -0.87620
O617        O  0.42709381  0.49919272  0.61764830    -0.89290
O618        O  0.06731636  0.50159932  0.62092322    -0.88040
O619        O  0.12090535  0.50018221  0.57014767    -0.87630
O620        O  0.37520656  0.50081965  0.56499815    -0.89000
O621        O  0.50068997  0.93021147  0.62147193    -0.87480
O622        O  0.49535299  0.56745338  0.62029473    -0.87070
Zr623      Zr  0.49807877  0.49849758  0.58457488     2.84310
O624        O  0.04321009  0.95541303  0.54275925    -1.09040
O625        O  0.45499039  0.54088403  0.54033090    -1.09770
C626        C  0.49664621  0.60642985  0.60742671     1.05660
C627        C  0.50107716  0.89100683  0.60881524     1.05600
C628        C  0.38760559  0.50055489  0.60445550     1.08580
C629        C  0.10717746  0.50229908  0.60912644     1.06360
H630        H  0.43725885  0.93689432  0.55914677     0.31920
O631        O  0.45524273  0.95459118  0.54138434    -1.30000
H632        H  0.05953243  0.55981518  0.56009006     0.31590
O633        O  0.04209546  0.54162299  0.54212905    -1.31670
O634        O  0.50208741  0.87666790  0.92933941    -0.87450
O635        O  0.49826913  0.61853879  0.92800796    -0.88940
O636        O  0.37750127  0.92757136  0.49793297    -0.87520
O637        O  0.12372223  0.93007900  0.50050765    -0.87570
O638        O  0.12232043  0.56750598  0.00055070    -0.87280
O639        O  0.37566155  0.56559285  0.99669224    -0.87090
O640        O  0.43153739  0.99927705  0.87584581    -0.87460
O641        O  0.07180866  0.99703516  0.87806097    -0.86920
O642        O  0.37793827  0.99631866  0.92658429    -0.87990
O643        O  0.12347927  0.99926625  0.93096345    -0.87140
O644        O  0.43072389  0.87644783  0.49746425    -0.87540
O645        O  0.42791569  0.61741812  0.99904302    -0.87270
O646        O  0.06943993  0.61887896  0.99751313    -0.86920
O647        O  0.07122366  0.87856765  0.50085396    -0.87320
O648        O  0.50109266  0.92777625  0.87677516    -0.87620
O649        O  0.50200452  0.56676686  0.87587280    -0.88960
Zr650      Zr  0.50037565  0.91225823  0.49886003     2.83100
Zr651      Zr  0.49899511  0.58384122  0.99781468     2.83500
Zr652      Zr  0.41247605  0.49707228  0.49663807     2.84090
Zr653      Zr  0.08674870  0.49856123  0.49982523     2.83360
Zr654      Zr  0.50110248  0.99753181  0.91179884     2.84220
O655        O  0.04391586  0.54120848  0.95532423    -1.09530
O656        O  0.45705045  0.95411431  0.95405489    -1.09030
C657        C  0.50237912  0.88876578  0.88981620     1.05630
C658        C  0.49966014  0.60598883  0.88853006     1.08250
C659        C  0.39084337  0.88855798  0.49758439     1.05800
C660        C  0.11094451  0.89100502  0.50090108     1.06160
C661        C  0.10927809  0.60654637  0.99935684     1.05750
C662        C  0.38829111  0.60469065  0.99812410     1.05300
C663        C  0.39167030  0.99850891  0.88766231     1.05720
C664        C  0.11125160  0.99789851  0.89143440     1.05240
H665        H  0.43831602  0.55809604  0.93602403     0.31910
O666        O  0.45621067  0.54043822  0.95406495    -1.30630
H667        H  0.06272766  0.93719259  0.93856340     0.31940
O668        O  0.04428713  0.95498049  0.95598147    -1.32010
C669        C  0.27196243  0.51767530  0.74793305    -0.00400
C670        C  0.22815367  0.51232836  0.74922464    -0.00400
C671        C  0.22798115  0.74779852  0.00614332    -0.00400
C672        C  0.27200252  0.74742524  0.00977074    -0.00400
C673        C  0.35786553  0.85489744  0.49806660    -0.07090
C674        C  0.32798855  0.85438077  0.53180117    -0.18210
C675        C  0.29896163  0.82043425  0.53680475     0.10110
C676        C  0.29895235  0.78681649  0.50636526    -0.07010
C677        C  0.32799374  0.78853062  0.97183963    -0.18250
C678        C  0.35745492  0.82173032  0.96746609     0.10140
S679        S  0.26486571  0.81946334  0.58362971    -0.33210
S680        S  0.39371554  0.81928595  0.92222887    -0.33220
H681        H  0.40205107  0.86307849  0.91948983     0.28150
H682        H  0.27623366  0.85970869  0.60000251     0.28150
H683        H  0.32896189  0.87971305  0.55543748     0.18740
H684        H  0.32812144  0.76325524  0.94809620     0.18750
C685        C  0.29688822  0.70664177  0.00927477    -0.07090
C686        C  0.29647871  0.68091464  0.97232201    -0.18210
C687        C  0.32460415  0.64613053  0.96799978     0.10110
C688        C  0.35498023  0.63789275  0.00091348    -0.07010
C689        C  0.35441568  0.66278377  0.53823008    -0.18250
C690        C  0.32509438  0.69615791  0.54315971     0.10140
S691        S  0.32039945  0.61533188  0.91907438    -0.33210
S692        S  0.32470593  0.72371012  0.59376480    -0.33220
H693        H  0.27964014  0.72840405  0.59461294     0.28150
H694        H  0.35787364  0.59066968  0.92295748     0.28150
H695        H  0.27504499  0.68885464  0.94606325     0.18740
H696        H  0.37677713  0.65578434  0.56405788     0.18750
C697        C  0.14395732  0.85727272  0.50287082    -0.07090
C698        C  0.13857129  0.82582152  0.53396895    -0.18210
C699        C  0.16742762  0.79199341  0.53755782     0.10110
C700        C  0.20195761  0.78794343  0.50819905    -0.07010
C701        C  0.20831871  0.82032213  0.97786853    -0.18250
C702        C  0.17987958  0.85500877  0.97499390     0.10140
S703        S  0.15884190  0.75589142  0.58136745    -0.33210
S704        S  0.19012603  0.89360660  0.93361658    -0.33220
H705        H  0.14680943  0.90405076  0.92595459     0.28150
H706        H  0.20276210  0.74762291  0.58865140     0.28150
H707        H  0.11184156  0.82800183  0.55626545     0.18740
H708        H  0.23427402  0.81754638  0.95484335     0.18750
C709        C  0.14258938  0.63997224  0.00006646    -0.07090
C710        C  0.14224660  0.67030137  0.96732524    -0.18210
C711        C  0.17246963  0.70320573  0.96648973     0.10110
C712        C  0.20260588  0.70756284  0.00035762    -0.07010
C713        C  0.20448261  0.67571152  0.53181629    -0.18250
C714        C  0.17485947  0.64215180  0.53210970     0.10140
S715        S  0.17172732  0.73775164  0.92053500    -0.33210
S716        S  0.17831861  0.60505173  0.57590338    -0.33220
H717        H  0.13378039  0.59814210  0.57869072     0.28150
H718        H  0.21643331  0.74537126  0.92085188     0.28150
H719        H  0.11863707  0.66790456  0.94175279     0.18740
H720        H  0.22738337  0.67840332  0.55791346     0.18750
C721        C  0.29859663  0.01615841  0.78783213    -0.07090
C722        C  0.29706496  0.97925380  0.81327259    -0.18210
C723        C  0.32737529  0.97215798  0.84572462     0.10110
C724        C  0.35933458  0.00298063  0.85374524    -0.07010
C725        C  0.36078557  0.53985457  0.82888952    -0.18250
C726        C  0.33113845  0.54673401  0.79604876     0.10140
S727        S  0.32605553  0.92179612  0.87316512    -0.33210
S728        S  0.33803110  0.59457063  0.76520415    -0.33220
H729        H  0.29405332  0.60193853  0.75916125     0.28150
H730        H  0.37108429  0.91822839  0.87731410     0.28150
H731        H  0.27398191  0.95443484  0.80589726     0.18740
H732        H  0.38543535  0.56356203  0.83511383     0.18750
C733        C  0.14509501  0.99801408  0.85864803    -0.07090
C734        C  0.17266657  0.53322686  0.85696352    -0.18210
C735        C  0.20071757  0.53900838  0.82244822     0.10110
C736        C  0.20344449  0.00737848  0.79005283    -0.07010
C737        C  0.17753681  0.97089960  0.79352513    -0.18250
C738        C  0.14804530  0.96611326  0.82679265     0.10140
S739        S  0.22815468  0.58923779  0.82001825    -0.33210
S740        S  0.11470488  0.91903867  0.82537595    -0.33220
H741        H  0.10029934  0.92093652  0.86771792     0.28150
H742        H  0.21713225  0.59650183  0.77713573     0.28150
H743        H  0.16995399  0.55805188  0.88107832     0.18740
H744        H  0.17896725  0.94649338  0.76894485     0.18750
C745        C  0.13967286  0.50657175  0.64306781    -0.07090
C746        C  0.17263021  0.97600344  0.64570069    -0.18210
C747        C  0.20205766  0.97616822  0.67978942     0.10110
C748        C  0.20076897  0.50999341  0.71000835    -0.07010
C749        C  0.16779448  0.54054614  0.70686565    -0.18250
C750        C  0.13715165  0.53910659  0.67431268     0.10140
S751        S  0.23632595  0.92986925  0.68462534    -0.33210
S752        S  0.09554675  0.57950249  0.67570411    -0.33220
H753        H  0.08659162  0.58001867  0.63175240     0.28150
H754        H  0.24443249  0.93326718  0.72873667     0.28150
H755        H  0.17364185  0.95016777  0.62256214     0.18740
H756        H  0.16527290  0.56550834  0.73078744     0.18750
C757        C  0.29728626  0.51324125  0.70733838    -0.07090
C758        C  0.32622913  0.97858269  0.70560771    -0.18210
C759        C  0.35379571  0.97221071  0.67107173     0.10110
C760        C  0.35412889  0.50195747  0.63758272    -0.07010
C761        C  0.32453146  0.53580607  0.63791581    -0.18250
C762        C  0.29610014  0.54205234  0.67230651     0.10140
S763        S  0.38737148  0.92509368  0.67133249    -0.33210
S764        S  0.26226392  0.58884814  0.66914242    -0.33220
H765        H  0.24402664  0.58699843  0.70974950     0.28150
H766        H  0.38803165  0.91958657  0.62657800     0.28150
H767        H  0.32701256  0.95561459  0.73140451     0.18740
H768        H  0.32496462  0.55872744  0.61202994     0.18750
C769        C  0.50104657  0.70771277  0.79613678    -0.07090
C770        C  0.46723267  0.70430202  0.82584747    -0.18150
C771        C  0.46563628  0.67125892  0.85556949     0.10110
C772        C  0.49792694  0.63944734  0.85532228    -0.07010
C773        C  0.03098142  0.64161653  0.82474164    -0.18250
C774        C  0.03386474  0.67609019  0.79635052     0.10140
S775        S  0.42174166  0.67203775  0.89335670    -0.33210
S776        S  0.08228594  0.67960908  0.76488122    -0.33220
H777        H  0.08611922  0.72391605  0.76930737     0.28150
H778        H  0.41825311  0.62756650  0.89586848     0.28150
H779        H  0.44224206  0.72849446  0.82676456     0.18740
H780        H  0.05643657  0.61786541  0.82501842     0.18750
C781        C  0.50294933  0.78762194  0.79650027    -0.07090
C782        C  0.03668729  0.79132728  0.82639478    -0.18210
C783        C  0.03757008  0.82383109  0.85697179     0.10110
C784        C  0.50467674  0.85508882  0.85688706    -0.07010
C785        C  0.47156365  0.85250804  0.82623613    -0.18250
C786        C  0.46927194  0.81828286  0.79728516     0.10140
S787        S  0.08106977  0.82195375  0.89563399    -0.33210
S788        S  0.42065743  0.81407819  0.76569908    -0.33220
H789        H  0.42100273  0.76953695  0.76154992     0.28150
H790        H  0.07955725  0.86444324  0.90907845     0.28150
H791        H  0.06199122  0.76747786  0.82708573     0.18740
H792        H  0.44564481  0.87577073  0.82684731     0.18750
C793        C  0.50045263  0.85735979  0.64182957    -0.07090
C794        C  0.46937011  0.82543567  0.63756112    -0.18210
C795        C  0.46723613  0.79148259  0.66633583     0.10110
C796        C  0.49776548  0.78835189  0.70014178    -0.07010
C797        C  0.02765690  0.82167530  0.70565629    -0.18250
C798        C  0.02936946  0.85597347  0.67692256     0.10140
S799        S  0.42368592  0.75374697  0.66033306    -0.33210
S800        S  0.07080475  0.89537242  0.68535193    -0.33220
H801        H  0.07923652  0.90231138  0.64167651     0.28150
H802        H  0.41046772  0.76640810  0.61917058     0.28150
H803        H  0.44619143  0.82752691  0.61162633     0.18740
H804        H  0.05154134  0.81976799  0.73094406     0.18750
C805        C  0.50480644  0.70766486  0.70023315    -0.07090
C806        C  0.47345272  0.67567754  0.70520816    -0.18210
C807        C  0.46976030  0.64218675  0.67553201     0.10110
C808        C  0.49838275  0.64011354  0.64038708    -0.07010
C809        C  0.03082495  0.67071769  0.63662068    -0.18250
C810        C  0.03480505  0.70382169  0.66620404     0.10140
S811        S  0.42585572  0.60527181  0.68235613    -0.33210
S812        S  0.07921064  0.73986422  0.65822980    -0.33220
H813        H  0.08394124  0.75196067  0.70121085     0.28150
H814        H  0.41731604  0.59981816  0.63839308     0.28150
H815        H  0.44961916  0.67853845  0.73039611     0.18740
H816        H  0.05374114  0.66852570  0.61047414     0.18750
C817        C  0.00174861  0.24800091  0.22595278    -0.00400
C818        C  0.50229027  0.24779221  0.26999454    -0.00400
O819        O  0.99840684  0.11857725  0.06792414    -0.87450
O820        O  0.00057253  0.37842596  0.06927919    -0.87620
O821        O  0.92710087  0.99918758  0.11764872    -0.89290
O822        O  0.56732292  0.00159673  0.12092239    -0.88040
O823        O  0.62091276  0.00018125  0.07014754    -0.87630
O824        O  0.87521450  0.00081135  0.06499776    -0.89000
O825        O  0.00070018  0.43020921  0.12147183    -0.87480
O826        O  0.99535987  0.06745104  0.12029412    -0.87070
Zr827      Zr  0.99808625  0.99849479  0.08457444     2.84310
O828        O  0.54322084  0.45541185  0.04275993    -1.09040
O829        O  0.95499797  0.04087953  0.04032938    -1.09770
C830        C  0.99665338  0.10642760  0.10742618     1.05660
C831        C  0.00109009  0.39100470  0.10881500     1.05600
C832        C  0.88761256  0.00054796  0.10445565     1.08580
C833        C  0.60718387  0.00229714  0.10912580     1.06360
H834        H  0.93727059  0.43688816  0.05914598     0.31920
O835        O  0.95525376  0.45458569  0.04138356    -1.30000
H836        H  0.55953997  0.05981357  0.06009046     0.31590
O837        O  0.54210367  0.04162102  0.04212947    -1.31670
O838        O  0.00207064  0.37667139  0.42933893    -0.87450
O839        O  0.99826054  0.11854229  0.42800860    -0.88940
O840        O  0.87751637  0.42756136  0.99793250    -0.87520
O841        O  0.62373666  0.43008039  0.00050880    -0.87570
O842        O  0.62231182  0.06750617  0.50054944    -0.87280
O843        O  0.87565345  0.06560111  0.49669298    -0.87090
O844        O  0.93152911  0.49928133  0.37584736    -0.87460
O845        O  0.57179975  0.49703728  0.37806004    -0.86920
O846        O  0.87792966  0.49632614  0.42658579    -0.87990
O847        O  0.62347031  0.49926686  0.43096248    -0.87140
O848        O  0.93074129  0.37644004  0.99746398    -0.87540
O849        O  0.92790880  0.11742497  0.49904382    -0.87270
O850        O  0.56943222  0.11888019  0.49751218    -0.86920
O851        O  0.57124021  0.37856716  0.00085584    -0.87320
O852        O  0.00108027  0.42777956  0.37677451    -0.87620
O853        O  0.00199634  0.06677001  0.37587375    -0.88960
Zr854      Zr  0.00039015  0.41225493  0.99885991     2.83100
Zr855      Zr  0.99898705  0.08384459  0.49781518     2.83500
Zr856      Zr  0.91248549  0.99706511  0.99663714     2.84090
Zr857      Zr  0.58675813  0.99856048  0.99982531     2.83360
Zr858      Zr  0.00109350  0.49753499  0.41179927     2.84220
O859        O  0.54390718  0.04121070  0.45532491    -1.09530
O860        O  0.95703865  0.45411984  0.45405511    -1.09030
C861        C  0.00236416  0.38876897  0.38981557     1.05630
C862        C  0.99965201  0.10599198  0.38853084     1.08250
C863        C  0.89086035  0.38854856  0.99758450     1.05800
C864        C  0.61096073  0.39100581  0.00090339     1.06160
C865        C  0.60927003  0.10654670  0.49935518     1.05750
C866        C  0.88828376  0.10469871  0.49812465     1.05300
C867        C  0.89166226  0.49851466  0.38766407     1.05720
C868        C  0.61124294  0.49789979  0.39143313     1.05240
H869        H  0.93830809  0.05810130  0.43602420     0.31910
O870        O  0.95620235  0.04044297  0.45406505    -1.30630
H871        H  0.56271504  0.43719398  0.43856390     0.31940
O872        O  0.54427528  0.45498245  0.45598240    -1.32010
C873        C  0.77196196  0.01767081  0.24793149    -0.00400
C874        C  0.72815323  0.01232389  0.24922461    -0.00400
C875        C  0.72796816  0.24780091  0.50613766    -0.00400
C876        C  0.77198941  0.24743120  0.50976630    -0.00400
C877        C  0.85788393  0.35488702  0.99806913    -0.07090
C878        C  0.82800895  0.35437068  0.03180533    -0.18210
C879        C  0.79898127  0.32042515  0.03680993     0.10110
C880        C  0.79896871  0.28680825  0.00636961    -0.07010
C881        C  0.82797779  0.28854032  0.47183583    -0.18250
C882        C  0.85743793  0.32174095  0.46746316     0.10140
S883        S  0.76488780  0.31945464  0.08363665    -0.33210
S884        S  0.89369969  0.31929705  0.42222680    -0.33220
H885        H  0.90204098  0.36308862  0.41949171     0.28150
H886        H  0.77626695  0.35969413  0.10001635     0.28150
H887        H  0.82898386  0.37970302  0.05544150     0.18740
H888        H  0.82810723  0.26326479  0.44809254     0.18750
C889        C  0.79687845  0.20664952  0.50927118    -0.07090
C890        C  0.79646936  0.18092041  0.47231984    -0.18210
C891        C  0.82459567  0.14613678  0.46799913     0.10110
C892        C  0.85497316  0.13790182  0.50091242    -0.07010
C893        C  0.85442242  0.16277198  0.03823278    -0.18250
C894        C  0.82510266  0.19614702  0.04316350     0.10140
S895        S  0.82038939  0.11533445  0.41907623    -0.33210
S896        S  0.82471520  0.22369679  0.09376987    -0.33220
H897        H  0.77964979  0.22839376  0.09461740     0.28150
H898        H  0.85786577  0.09067538  0.42295823     0.28150
H899        H  0.77503459  0.18885796  0.44606116     0.18740
H900        H  0.87678307  0.15577028  0.06406065     0.18750
C901        C  0.64397494  0.35727432  0.00287565    -0.07090
C902        C  0.63858927  0.32582463  0.03397551    -0.18210
C903        C  0.66744477  0.29199572  0.03756511     0.10110
C904        C  0.70197373  0.28794326  0.00820548    -0.07010
C905        C  0.70830158  0.32032286  0.47786256    -0.18250
C906        C  0.67986176  0.35500876  0.47498883     0.10140
S907        S  0.65885859  0.25589523  0.08137601    -0.33210
S908        S  0.69010757  0.39360811  0.43361271    -0.33220
H909        H  0.64679104  0.40405330  0.42595202     0.28150
H910        H  0.70277831  0.24762199  0.08865706     0.28150
H911        H  0.61185984  0.32800627  0.05627224     0.18740
H912        H  0.73425719  0.31754851  0.45483756     0.18750
C913        C  0.64258146  0.13997193  0.50006296    -0.07090
C914        C  0.64223792  0.17029975  0.46732061    -0.18210
C915        C  0.67245987  0.20320480  0.46648410     0.10110
C916        C  0.70259603  0.20756353  0.50035185    -0.07010
C917        C  0.70449112  0.17571007  0.03182128    -0.18250
C918        C  0.67486746  0.14215070  0.03211333     0.10140
S919        S  0.67171550  0.23775014  0.42052894    -0.33210
S920        S  0.67832685  0.10504859  0.07590518    -0.33220
H921        H  0.63378878  0.09813832  0.07869177     0.28150
H922        H  0.71642100  0.24537247  0.42084590     0.28150
H923        H  0.61862814  0.16790176  0.44174847     0.18740
H924        H  0.72739204  0.17840035  0.05791844     0.18750
C925        C  0.79859480  0.51615681  0.28783032    -0.07090
C926        C  0.79706083  0.47925465  0.31327388    -0.18210
C927        C  0.82736864  0.47216191  0.34572820     0.10110
C928        C  0.85932769  0.50298497  0.35374705    -0.07010
C929        C  0.86078113  0.03985650  0.32888809    -0.18250
C930        C  0.83113620  0.04673301  0.29604524     0.10140
S931        S  0.82604652  0.42180307  0.37317395    -0.33210
S932        S  0.83803080  0.09456626  0.26519583    -0.33220
H933        H  0.79405289  0.10193836  0.25915851     0.28150
H934        H  0.87107536  0.41823345  0.37731981     0.28150
H935        H  0.77397793  0.45443524  0.30589965     0.18740
H936        H  0.88543116  0.06356400  0.33511125     0.18750
C937        C  0.64508703  0.49801455  0.35864614    -0.07090
C938        C  0.67266227  0.03322481  0.35696323    -0.18210
C939        C  0.70071555  0.03900476  0.32244894     0.10110
C940        C  0.70344193  0.50737526  0.29005293    -0.07010
C941        C  0.67752998  0.47089889  0.29352356    -0.18250
C942        C  0.64803575  0.46611469  0.32678948     0.10140
S943        S  0.72815600  0.08923248  0.32002064    -0.33210
S944        S  0.61468985  0.41904390  0.32536900    -0.33220
H945        H  0.60028595  0.42093897  0.36771169     0.28150
H946        H  0.71714043  0.09649511  0.27713609     0.28150
H947        H  0.66995112  0.05804944  0.38107856     0.18740
H948        H  0.67895917  0.44649300  0.26894287     0.18750
C949        C  0.63967791  0.00656931  0.14306701    -0.07090
C950        C  0.67263305  0.47599898  0.14570147    -0.18210
C951        C  0.70205888  0.47616301  0.17979105     0.10110
C952        C  0.70077014  0.00998902  0.21000869    -0.07010
C953        C  0.66779806  0.04054377  0.20686441    -0.18250
C954        C  0.63715682  0.03910520  0.17431059     0.10140
S955        S  0.73632554  0.42986303  0.18462955    -0.33210
S956        S  0.59555409  0.07950338  0.17569977    -0.33220
H957        H  0.58659649  0.08001609  0.13174861     0.28150
H958        H  0.74443098  0.43326210  0.22874103     0.28150
H959        H  0.67364406  0.45016271  0.12256354     0.18740
H960        H  0.66527727  0.06550678  0.23078549     0.18750
C961        C  0.79728710  0.01323490  0.20733666    -0.07090
C962        C  0.82623233  0.47857796  0.20560860    -0.18210
C963        C  0.85380174  0.47220615  0.17107425     0.10110
C964        C  0.85413457  0.00195071  0.13758298    -0.07010
C965        C  0.82453456  0.03579732  0.13791337    -0.18250
C966        C  0.79610146  0.04204404  0.17230300     0.10140
S967        S  0.88738172  0.42509209  0.17134028    -0.33210
S968        S  0.76226356  0.08883834  0.16913554    -0.33220
H969        H  0.74403033  0.08699352  0.20974479     0.28150
H970        H  0.88804545  0.41958198  0.12658622     0.28150
H971        H  0.82701612  0.45561140  0.23140678     0.18740
H972        H  0.82496713  0.05871728  0.11202623     0.18750
C973        C  0.00104232  0.20771435  0.29613695    -0.07090
C974        C  0.96722541  0.20430251  0.32584408    -0.18150
C975        C  0.96562770  0.17125977  0.35556640     0.10110
C976        C  0.99792010  0.13944993  0.35532281    -0.07010
C977        C  0.53097763  0.14162030  0.32474568    -0.18250
C978        C  0.53386215  0.17609359  0.29635449     0.10140
S979        S  0.92172937  0.17203670  0.39334932    -0.33210
S980        S  0.58228651  0.17961454  0.26489020    -0.33220
H981        H  0.58611670  0.22392192  0.26931505     0.28150
H982        H  0.91824375  0.12756529  0.39586191     0.28150
H983        H  0.94223351  0.22849377  0.32675811     0.18740
H984        H  0.55643399  0.11787047  0.32502545     0.18750
C985        C  0.00294302  0.28762368  0.29649961    -0.07090
C986        C  0.53667713  0.29132909  0.32639838    -0.18210
C987        C  0.53755656  0.32383324  0.35697512     0.10110
C988        C  0.00466368  0.35509141  0.35688658    -0.07010
C989        C  0.97155427  0.35251068  0.32623157    -0.18250
C990        C  0.96926589  0.31828519  0.29728024     0.10140
S991        S  0.58105158  0.32195611  0.39564230    -0.33210
S992        S  0.92065557  0.31408088  0.26568783    -0.33220
H993        H  0.92100067  0.26953949  0.26154015     0.28150
H994        H  0.57954335  0.36444857  0.40907763     0.28150
H995        H  0.56198081  0.26747952  0.32709276     0.18740
H996        H  0.94563571  0.37577373  0.32683942     0.18750
C997        C  0.00046402  0.35735769  0.14182879    -0.07090
C998        C  0.96938140  0.32543403  0.13755795    -0.18210
C999        C  0.96724484  0.29148111  0.16633231     0.10110
C1000       C  0.99777143  0.28835045  0.20014059    -0.07010
C1001       C  0.52766313  0.32167326  0.20565731    -0.18250
C1002       C  0.52937852  0.35597115  0.17692356     0.10140
S1003       S  0.92369493  0.25374566  0.16032597    -0.33210
S1004       S  0.57081413  0.39536931  0.18535538    -0.33220
H1005       H  0.57924705  0.40231010  0.14168049     0.28150
H1006       H  0.91047787  0.26640864  0.11916368     0.28150
H1007       H  0.94620463  0.32752556  0.11162150     0.18740
H1008       H  0.55154547  0.31976562  0.23094703     0.18750
C1009       C  0.00481104  0.20766325  0.20023353    -0.07090
C1010       C  0.97345686  0.17567604  0.20520702    -0.18210
C1011       C  0.96976551  0.14218507  0.17553075     0.10110
C1012       C  0.99838925  0.14011149  0.14038685    -0.07010
C1013       C  0.53083189  0.17071541  0.13662193    -0.18250
C1014       C  0.53481119  0.20381946  0.16620563     0.10140
S1015       S  0.92586049  0.10527035  0.18235328    -0.33210
S1016       S  0.57921777  0.23986124  0.15823306    -0.33220
H1017       H  0.58394627  0.25195806  0.20121421     0.28150
H1018       H  0.91732241  0.09981661  0.13838993     0.28150
H1019       H  0.94962197  0.17853722  0.23039368     0.18740
H1020       H  0.55374910  0.16852320  0.11047630     0.18750
C1021       C  0.00174582  0.24800163  0.72595314    -0.00400
C1022       C  0.50229336  0.24779128  0.76999480    -0.00400
O1023       O  0.99839918  0.11857965  0.56792474    -0.87450
O1024       O  0.00055708  0.37842823  0.56927934    -0.87620
O1025       O  0.92709380  0.99919272  0.61764829    -0.89290
O1026       O  0.56731636  0.00159932  0.62092321    -0.88040
O1027       O  0.62090535  0.00018221  0.57014766    -0.87630
O1028       O  0.87520656  0.00081966  0.56499815    -0.89000
O1029       O  0.00068996  0.43021147  0.62147193    -0.87480
O1030       O  0.99535298  0.06745338  0.62029473    -0.87070
Zr1031     Zr  0.99807877  0.99849758  0.58457488     2.84310
O1032       O  0.54321009  0.45541303  0.54275925    -1.09040
O1033       O  0.95499039  0.04088403  0.54033090    -1.09770
C1034       C  0.99664620  0.10642984  0.60742671     1.05660
C1035       C  0.00107715  0.39100683  0.60881525     1.05600
C1036       C  0.88760559  0.00055490  0.60445550     1.08580
C1037       C  0.60717746  0.00229908  0.60912643     1.06360
H1038       H  0.93725885  0.43689432  0.55914677     0.31920
O1039       O  0.95524273  0.45459118  0.54138434    -1.30000
H1040       H  0.55953244  0.05981518  0.56009006     0.31590
O1041       O  0.54209546  0.04162299  0.54212904    -1.31670
O1042       O  0.00208741  0.37666790  0.92933940    -0.87450
O1043       O  0.99826913  0.11853879  0.92800796    -0.88940
O1044       O  0.87750128  0.42757136  0.49793296    -0.87520
O1045       O  0.62372222  0.43007900  0.50050764    -0.87570
O1046       O  0.62232043  0.06750598  0.00055069    -0.87280
O1047       O  0.87566155  0.06559285  0.99669224    -0.87090
O1048       O  0.93153739  0.49927705  0.87584581    -0.87460
O1049       O  0.57180866  0.49703516  0.87806098    -0.86920
O1050       O  0.87793827  0.49631866  0.92658429    -0.87990
O1051       O  0.62347927  0.49926626  0.93096345    -0.87140
O1052       O  0.93072390  0.37644783  0.49746424    -0.87540
O1053       O  0.92791570  0.11741812  0.99904302    -0.87270
O1054       O  0.56943993  0.11887896  0.99751312    -0.86920
O1055       O  0.57122366  0.37856765  0.50085396    -0.87320
O1056       O  0.00109265  0.42777625  0.87677516    -0.87620
O1057       O  0.00200451  0.06676686  0.87587279    -0.88960
Zr1058     Zr  0.00037565  0.41225823  0.49886003     2.83100
Zr1059     Zr  0.99899511  0.08384121  0.99781468     2.83500
Zr1060     Zr  0.91247605  0.99707228  0.49663807     2.84090
Zr1061     Zr  0.58674869  0.99856123  0.49982522     2.83360
Zr1062     Zr  0.00110247  0.49753181  0.91179884     2.84220
O1063       O  0.54391586  0.04120848  0.95532423    -1.09530
O1064       O  0.95705045  0.45411431  0.95405488    -1.09030
C1065       C  0.00237911  0.38876578  0.88981620     1.05630
C1066       C  0.99966014  0.10598883  0.88853006     1.08250
C1067       C  0.89084338  0.38855798  0.49758437     1.05800
C1068       C  0.61094450  0.39100502  0.50090107     1.06160
C1069       C  0.60927809  0.10654637  0.99935683     1.05750
C1070       C  0.88829112  0.10469065  0.99812410     1.05300
C1071       C  0.89167030  0.49850891  0.88766231     1.05720
C1072       C  0.61125160  0.49789852  0.89143440     1.05240
H1073       H  0.93831602  0.05809604  0.93602403     0.31910
O1074       O  0.95621067  0.04043823  0.95406495    -1.30630
H1075       H  0.56272766  0.43719259  0.93856341     0.31940
O1076       O  0.54428714  0.45498049  0.95598147    -1.32010
C1077       C  0.77196243  0.01767532  0.74793305    -0.00400
C1078       C  0.72815367  0.01232837  0.74922463    -0.00400
C1079       C  0.72798115  0.24779852  0.00614331    -0.00400
C1080       C  0.77200252  0.24742525  0.00977074    -0.00400
C1081       C  0.85786554  0.35489744  0.49806657    -0.07090
C1082       C  0.82798855  0.35438077  0.53180113    -0.18210
C1083       C  0.79896162  0.32043425  0.53680471     0.10110
C1084       C  0.79895234  0.28681650  0.50636521    -0.07010
C1085       C  0.82799374  0.28853062  0.97183962    -0.18250
C1086       C  0.85745491  0.32173032  0.96746608     0.10140
S1087       S  0.76486570  0.31946333  0.58362967    -0.33210
S1088       S  0.89371554  0.31928594  0.92222887    -0.33220
H1089       H  0.90205108  0.36307848  0.91948983     0.28150
H1090       H  0.77623364  0.35970869  0.60000247     0.28150
H1091       H  0.82896188  0.37971304  0.55543745     0.18740
H1092       H  0.82812144  0.26325524  0.94809619     0.18750
C1093       C  0.79688822  0.20664177  0.00927477    -0.07090
C1094       C  0.79647871  0.18091464  0.97232201    -0.18210
C1095       C  0.82460414  0.14613053  0.96799978     0.10110
C1096       C  0.85498023  0.13789276  0.00091348    -0.07010
C1097       C  0.85441569  0.16278378  0.53823004    -0.18250
C1098       C  0.82509439  0.19615792  0.54315966     0.10140
S1099       S  0.82039944  0.11533187  0.91907439    -0.33210
S1100       S  0.82470594  0.22371014  0.59376474    -0.33220
H1101       H  0.77964014  0.22840405  0.59461289     0.28150
H1102       H  0.85787364  0.09066968  0.92295748     0.28150
H1103       H  0.77504499  0.18885463  0.94606325     0.18740
H1104       H  0.87677713  0.15578436  0.56405784     0.18750
C1105       C  0.64395732  0.35727272  0.50287080    -0.07090
C1106       C  0.63857128  0.32582151  0.53396892    -0.18210
C1107       C  0.66742762  0.29199340  0.53755779     0.10110
C1108       C  0.70195760  0.28794343  0.50819901    -0.07010
C1109       C  0.70831871  0.32032213  0.97786852    -0.18250
C1110       C  0.67987958  0.35500877  0.97499390     0.10140
S1111       S  0.65884189  0.25589140  0.58136740    -0.33210
S1112       S  0.69012603  0.39360660  0.93361657    -0.33220
H1113       H  0.64680943  0.40405076  0.92595458     0.28150
H1114       H  0.70276210  0.24762289  0.58865136     0.28150
H1115       H  0.61184155  0.32800182  0.55626542     0.18740
H1116       H  0.73427402  0.31754638  0.95484334     0.18750
C1117       C  0.64258939  0.13997224  0.00006645    -0.07090
C1118       C  0.64224660  0.17030138  0.96732524    -0.18210
C1119       C  0.67246963  0.20320574  0.96648973     0.10110
C1120       C  0.70260588  0.20756284  0.00035761    -0.07010
C1121       C  0.70448262  0.17571151  0.53181625    -0.18250
C1122       C  0.67485948  0.14215179  0.53210966     0.10140
S1123       S  0.67172731  0.23775165  0.92053500    -0.33210
S1124       S  0.67831864  0.10505172  0.57590334    -0.33220
H1125       H  0.63378042  0.09814209  0.57869070     0.28150
H1126       H  0.71643330  0.24537127  0.92085188     0.28150
H1127       H  0.61863706  0.16790457  0.94175279     0.18740
H1128       H  0.72738339  0.17840331  0.55791340     0.18750
C1129       C  0.79859663  0.51615841  0.78783213    -0.07090
C1130       C  0.79706494  0.47925381  0.81327260    -0.18210
C1131       C  0.82737527  0.47215799  0.84572463     0.10110
C1132       C  0.85933458  0.50298063  0.85374524    -0.07010
C1133       C  0.86078555  0.03985460  0.82888955    -0.18250
C1134       C  0.83113842  0.04673404  0.79604878     0.10140
S1135       S  0.82605547  0.42179615  0.87316517    -0.33210
S1136       S  0.83803105  0.09457069  0.76520421    -0.33220
H1137       H  0.79405327  0.10193853  0.75916123     0.28150
H1138       H  0.87108423  0.41822840  0.87731416     0.28150
H1139       H  0.77398189  0.45443486  0.80589728     0.18740
H1140       H  0.88543530  0.06356208  0.83511388     0.18750
C1141       C  0.64509500  0.49801408  0.85864802    -0.07090
C1142       C  0.67266654  0.03322690  0.85696350    -0.18210
C1143       C  0.70071754  0.03900841  0.82244820     0.10110
C1144       C  0.70344448  0.50737848  0.79005282    -0.07010
C1145       C  0.67753678  0.47089961  0.79352511    -0.18250
C1146       C  0.64804527  0.46611327  0.82679264     0.10140
S1147       S  0.72815462  0.08923783  0.82001821    -0.33210
S1148       S  0.61470483  0.41903870  0.82537591    -0.33220
H1149       H  0.60029935  0.42093651  0.86771791     0.28150
H1150       H  0.71713220  0.09650185  0.77713569     0.28150
H1151       H  0.66995394  0.05805192  0.88107828     0.18740
H1152       H  0.67896721  0.44649340  0.76894483     0.18750
C1153       C  0.63967286  0.00657175  0.64306780    -0.07090
C1154       C  0.67263021  0.47600344  0.64570069    -0.18210
C1155       C  0.70205766  0.47616822  0.67978942     0.10110
C1156       C  0.70076897  0.00999341  0.71000835    -0.07010
C1157       C  0.66779447  0.04054614  0.70686564    -0.18250
C1158       C  0.63715165  0.03910659  0.67431267     0.10140
S1159       S  0.73632594  0.42986924  0.68462534    -0.33210
S1160       S  0.59554675  0.07950248  0.67570410    -0.33220
H1161       H  0.58659164  0.08001868  0.63175238     0.28150
H1162       H  0.74443248  0.43326718  0.72873667     0.28150
H1163       H  0.67364185  0.45016777  0.62256213     0.18740
H1164       H  0.66527288  0.06550834  0.73078743     0.18750
C1165       C  0.79728626  0.01324127  0.70733838    -0.07090
C1166       C  0.82622913  0.47858268  0.70560771    -0.18210
C1167       C  0.85379571  0.47221070  0.67107173     0.10110
C1168       C  0.85412888  0.00195748  0.63758272    -0.07010
C1169       C  0.82453147  0.03580609  0.63791581    -0.18250
C1170       C  0.79610015  0.04205236  0.67230651     0.10140
S1171       S  0.88737148  0.42509368  0.67133248    -0.33210
S1172       S  0.76226394  0.08884817  0.66914242    -0.33220
H1173       H  0.74402660  0.08699843  0.70974947     0.28150
H1174       H  0.88803166  0.41958657  0.62657800     0.28150
H1175       H  0.82701255  0.45561459  0.73140451     0.18740
H1176       H  0.82496464  0.05872746  0.61202994     0.18750
C1177       C  0.00104656  0.20771277  0.79613678    -0.07090
C1178       C  0.96723266  0.20430202  0.82584747    -0.18150
C1179       C  0.96563627  0.17125892  0.85556949     0.10110
C1180       C  0.99792694  0.13944733  0.85532228    -0.07010
C1181       C  0.53098141  0.14161652  0.82474164    -0.18250
C1182       C  0.53386473  0.17609019  0.79635051     0.10140
S1183       S  0.92174165  0.17203775  0.89335670    -0.33210
S1184       S  0.58228593  0.17960908  0.76488122    -0.33220
H1185       H  0.58611921  0.22391605  0.76930736     0.28150
H1186       H  0.91825310  0.12756650  0.89586848     0.28150
H1187       H  0.94224206  0.22849446  0.82676457     0.18740
H1188       H  0.55643656  0.11786540  0.82501841     0.18750
C1189       C  0.00294932  0.28762194  0.79650027    -0.07090
C1190       C  0.53668728  0.29132728  0.82639477    -0.18210
C1191       C  0.53757008  0.32383109  0.85697178     0.10110
C1192       C  0.00467673  0.35508882  0.85688705    -0.07010
C1193       C  0.97156364  0.35250804  0.82623613    -0.18250
C1194       C  0.96927193  0.31828286  0.79728516     0.10140
S1195       S  0.58106978  0.32195376  0.89563398    -0.33210
S1196       S  0.92065742  0.31407819  0.76569908    -0.33220
H1197       H  0.92100272  0.26953695  0.76154992     0.28150
H1198       H  0.57955725  0.36444324  0.90907844     0.28150
H1199       H  0.56199122  0.26747787  0.82708572     0.18740
H1200       H  0.94564480  0.37577073  0.82684731     0.18750
C1201       C  0.00045263  0.35735979  0.64182957    -0.07090
C1202       C  0.96937010  0.32543567  0.63756112    -0.18210
C1203       C  0.96723612  0.29148259  0.66633583     0.10110
C1204       C  0.99776547  0.28835189  0.70014178    -0.07010
C1205       C  0.52765690  0.32167530  0.70565629    -0.18250
C1206       C  0.52936945  0.35597348  0.67692256     0.10140
S1207       S  0.92368592  0.25374697  0.66033306    -0.33210
S1208       S  0.57080475  0.39537242  0.68535193    -0.33220
H1209       H  0.57923652  0.40231138  0.64167651     0.28150
H1210       H  0.91046772  0.26640810  0.61917057     0.28150
H1211       H  0.94619143  0.32752691  0.61162633     0.18740
H1212       H  0.55154133  0.31976799  0.73094406     0.18750
C1213       C  0.00480643  0.20766486  0.70023315    -0.07090
C1214       C  0.97345271  0.17567754  0.70520816    -0.18210
C1215       C  0.96976029  0.14218674  0.67553201     0.10110
C1216       C  0.99838274  0.14011354  0.64038708    -0.07010
C1217       C  0.53082494  0.17071769  0.63662067    -0.18250
C1218       C  0.53480504  0.20382170  0.66620404     0.10140
S1219       S  0.92585571  0.10527181  0.68235613    -0.33210
S1220       S  0.57921063  0.23986423  0.65822979    -0.33220
H1221       H  0.58394123  0.25196067  0.70121084     0.28150
H1222       H  0.91731603  0.09981816  0.63839308     0.28150
H1223       H  0.94961915  0.17853845  0.73039611     0.18740
H1224       H  0.55374113  0.16852571  0.61047413     0.18750
C1225       C  0.00174860  0.74800091  0.22595277    -0.00400
C1226       C  0.50229026  0.74779221  0.26999454    -0.00400
O1227       O  0.99840685  0.61857724  0.06792414    -0.87450
O1228       O  0.00057254  0.87842596  0.06927919    -0.87620
O1229       O  0.92710086  0.49918758  0.11764871    -0.89290
O1230       O  0.56732292  0.50159673  0.12092238    -0.88040
O1231       O  0.62091276  0.50018125  0.07014752    -0.87630
O1232       O  0.87521450  0.50081135  0.06499775    -0.89000
O1233       O  0.00070019  0.93020921  0.12147182    -0.87480
O1234       O  0.99535987  0.56745104  0.12029412    -0.87070
Zr1235     Zr  0.99808625  0.49849479  0.08457444     2.84310
O1236       O  0.54322085  0.95541185  0.04275994    -1.09040
O1237       O  0.95499797  0.54087953  0.04032938    -1.09770
C1238       C  0.99665338  0.60642759  0.10742618     1.05660
C1239       C  0.00109010  0.89100470  0.10881500     1.05600
C1240       C  0.88761256  0.50054795  0.10445564     1.08580
C1241       C  0.60718387  0.50229714  0.10912579     1.06360
H1242       H  0.93727059  0.93688816  0.05914599     0.31920
O1243       O  0.95525375  0.95458569  0.04138357    -1.30000
H1244       H  0.55953996  0.55981357  0.06009045     0.31590
O1245       O  0.54210366  0.54162103  0.04212946    -1.31670
O1246       O  0.00207065  0.87667139  0.42933893    -0.87450
O1247       O  0.99826054  0.61854229  0.42800859    -0.88940
O1248       O  0.87751636  0.92756136  0.99793252    -0.87520
O1249       O  0.62373667  0.93008038  0.00050883    -0.87570
O1250       O  0.62231182  0.56750617  0.50054943    -0.87280
O1251       O  0.87565344  0.56560111  0.49669297    -0.87090
O1252       O  0.93152911  0.99928134  0.37584737    -0.87460
O1253       O  0.57179976  0.99703728  0.37806005    -0.86920
O1254       O  0.87792966  0.99632614  0.42658580    -0.87990
O1255       O  0.62347031  0.99926686  0.43096249    -0.87140
O1256       O  0.93074128  0.87644004  0.99746399    -0.87540
O1257       O  0.92790880  0.61742497  0.49904381    -0.87270
O1258       O  0.56943223  0.61888019  0.49751219    -0.86920
O1259       O  0.57124021  0.87856715  0.00085586    -0.87320
O1260       O  0.00108026  0.92777956  0.37677451    -0.87620
O1261       O  0.00199634  0.56677001  0.37587374    -0.88960
Zr1262     Zr  0.00039015  0.91225493  0.99885991     2.83100
Zr1263     Zr  0.99898704  0.58384459  0.49781518     2.83500
Zr1264     Zr  0.91248551  0.49706511  0.99663713     2.84090
Zr1265     Zr  0.58675812  0.49856048  0.99982530     2.83360
Zr1266     Zr  0.00109350  0.99753499  0.41179927     2.84220
O1267       O  0.54390718  0.54121070  0.45532491    -1.09530
O1268       O  0.95703865  0.95411984  0.45405512    -1.09030
C1269       C  0.00236416  0.88876898  0.38981557     1.05630
C1270       C  0.99965200  0.60599198  0.38853084     1.08250
C1271       C  0.89086034  0.88854856  0.99758452     1.05800
C1272       C  0.61096073  0.89100580  0.00090341     1.06160
C1273       C  0.60927003  0.60654671  0.49935517     1.05750
C1274       C  0.88828376  0.60469872  0.49812464     1.05300
C1275       C  0.89166226  0.99851466  0.38766408     1.05720
C1276       C  0.61124295  0.99789979  0.39143314     1.05240
H1277       H  0.93830809  0.55810130  0.43602419     0.31910
O1278       O  0.95620234  0.54044297  0.45406504    -1.30630
H1279       H  0.56271504  0.93719397  0.43856390     0.31940
O1280       O  0.54427528  0.95498244  0.45598240    -1.32010
C1281       C  0.77196196  0.51767079  0.24793148    -0.00400
C1282       C  0.72815322  0.51232387  0.24922460    -0.00400
C1283       C  0.72796816  0.74780091  0.50613767    -0.00400
C1284       C  0.77198941  0.74743121  0.50976631    -0.00400
C1285       C  0.85788393  0.85488702  0.99806915    -0.07090
C1286       C  0.82800896  0.85437066  0.03180535    -0.18210
C1287       C  0.79898127  0.82042513  0.03680995     0.10110
C1288       C  0.79896871  0.78680824  0.00636962    -0.07010
C1289       C  0.82797780  0.78854032  0.47183584    -0.18250
C1290       C  0.85743794  0.82174096  0.46746317     0.10140
S1291       S  0.76488781  0.81945461  0.08363667    -0.33210
S1292       S  0.89369969  0.81929706  0.42222680    -0.33220
H1293       H  0.90204098  0.86308863  0.41949171     0.28150
H1294       H  0.77626697  0.85969408  0.10001639     0.28150
H1295       H  0.82898386  0.87970300  0.05544153     0.18740
H1296       H  0.82810723  0.76326480  0.44809254     0.18750
C1297       C  0.79687845  0.70664953  0.50927118    -0.07090
C1298       C  0.79646935  0.68092041  0.47231984    -0.18210
C1299       C  0.82459566  0.64613678  0.46799913     0.10110
C1300       C  0.85497315  0.63790182  0.50091241    -0.07010
C1301       C  0.85442242  0.66277196  0.03823277    -0.18250
C1302       C  0.82510266  0.69614700  0.04316349     0.10140
S1303       S  0.82038938  0.61533445  0.41907623    -0.33210
S1304       S  0.82471519  0.72369676  0.09376987    -0.33220
H1305       H  0.77964979  0.72839373  0.09461739     0.28150
H1306       H  0.85786576  0.59067539  0.42295822     0.28150
H1307       H  0.77503459  0.68885797  0.44606116     0.18740
H1308       H  0.87678307  0.65577026  0.06406064     0.18750
C1309       C  0.64397494  0.85727431  0.00287568    -0.07090
C1310       C  0.63858927  0.82582461  0.03397553    -0.18210
C1311       C  0.66744477  0.79199571  0.03756512     0.10110
C1312       C  0.70197374  0.78794325  0.00820550    -0.07010
C1313       C  0.70830158  0.82032286  0.47786257    -0.18250
C1314       C  0.67986176  0.85500876  0.47498884     0.10140
S1315       S  0.65885859  0.75589520  0.08137601    -0.33210
S1316       S  0.69010757  0.89360811  0.43361271    -0.33220
H1317       H  0.64679103  0.90405330  0.42595203     0.28150
H1318       H  0.70277831  0.74762197  0.08865707     0.28150
H1319       H  0.61185984  0.82800625  0.05627225     0.18740
H1320       H  0.73425719  0.81754851  0.45483757     0.18750
C1321       C  0.64258146  0.63997194  0.50006295    -0.07090
C1322       C  0.64223792  0.67029975  0.46732061    -0.18210
C1323       C  0.67245987  0.70320481  0.46648410     0.10110
C1324       C  0.70259603  0.70756354  0.50035185    -0.07010
C1325       C  0.70449112  0.67571006  0.03182128    -0.18250
C1326       C  0.67486744  0.64215070  0.03211333     0.10140
S1327       S  0.67171550  0.73775015  0.42052894    -0.33210
S1328       S  0.67832682  0.60504860  0.07590519    -0.33220
H1329       H  0.63378874  0.59813834  0.07869177     0.28150
H1330       H  0.71642101  0.74537248  0.42084591     0.28150
H1331       H  0.61862814  0.66790177  0.44174847     0.18740
H1332       H  0.72739203  0.67840033  0.05791844     0.18750
C1333       C  0.79859480  0.01615683  0.28783033    -0.07090
C1334       C  0.79706085  0.97925465  0.31327388    -0.18210
C1335       C  0.82736866  0.97216190  0.34572819     0.10110
C1336       C  0.85932769  0.00298498  0.35374706    -0.07010
C1337       C  0.86078115  0.53985648  0.32888805    -0.18250
C1338       C  0.83113622  0.54673298  0.29604521     0.10140
S1339       S  0.82604658  0.92180304  0.37317389    -0.33210
S1340       S  0.83803083  0.59456621  0.26519577    -0.33220
H1341       H  0.79405291  0.60193836  0.25915850     0.28150
H1342       H  0.87107543  0.91823344  0.37731974     0.28150
H1343       H  0.77397796  0.95443523  0.30589962     0.18740
H1344       H  0.88543119  0.56356397  0.33511120     0.18750
C1345       C  0.64508704  0.99801455  0.35864615    -0.07090
C1346       C  0.67266228  0.53322479  0.35696323    -0.18210
C1347       C  0.70071556  0.53900473  0.32244894     0.10110
C1348       C  0.70344194  0.00737527  0.29005294    -0.07010
C1349       C  0.67753001  0.97089888  0.29352358    -0.18250
C1350       C  0.64803578  0.96611468  0.32678950     0.10140
S1351       S  0.72815603  0.58923244  0.32002064    -0.33210
S1352       S  0.61468992  0.91904386  0.32536904    -0.33220
H1353       H  0.60028594  0.92093897  0.36771170     0.28150
H1354       H  0.71714046  0.59649509  0.27713610     0.28150
H1355       H  0.66995115  0.55804941  0.38107857     0.18740
H1356       H  0.67895922  0.94649299  0.26894290     0.18750
C1357       C  0.63967790  0.50656930  0.14306700    -0.07090
C1358       C  0.67263306  0.97599898  0.14570148    -0.18210
C1359       C  0.70205888  0.97616303  0.17979107     0.10110
C1360       C  0.70077014  0.50998901  0.21000867    -0.07010
C1361       C  0.66779806  0.54054376  0.20686440    -0.18250
C1362       C  0.63715682  0.53910519  0.17431058     0.10140
S1363       S  0.73632555  0.92986305  0.18462956    -0.33210
S1364       S  0.59555409  0.57950337  0.17569976    -0.33220
H1365       H  0.58659647  0.58001608  0.13174861     0.28150
H1366       H  0.74443100  0.93326212  0.22874104     0.28150
H1367       H  0.67364406  0.95016271  0.12256356     0.18740
H1368       H  0.66527727  0.56550677  0.23078548     0.18750
C1369       C  0.79728709  0.51323488  0.20733664    -0.07090
C1370       C  0.82623233  0.97857798  0.20560861    -0.18210
C1371       C  0.85380174  0.97220616  0.17107426     0.10110
C1372       C  0.85413457  0.50195069  0.13758296    -0.07010
C1373       C  0.82453454  0.53579730  0.13791336    -0.18250
C1374       C  0.79610145  0.54204401  0.17230298     0.10140
S1375       S  0.88738171  0.92509209  0.17134029    -0.33210
S1376       S  0.76226353  0.58883832  0.16913552    -0.33220
H1377       H  0.74403034  0.58699351  0.20974479     0.28150
H1378       H  0.88804544  0.91958199  0.12658622     0.28150
H1379       H  0.82701612  0.95561142  0.23140679     0.18740
H1380       H  0.82496711  0.55871726  0.11202621     0.18750
C1381       C  0.00104232  0.70771435  0.29613695    -0.07090
C1382       C  0.96722541  0.70430251  0.32584407    -0.18150
C1383       C  0.96562769  0.67125977  0.35556640     0.10110
C1384       C  0.99792009  0.63944993  0.35532281    -0.07010
C1385       C  0.53097762  0.64162030  0.32474569    -0.18250
C1386       C  0.53386213  0.67609359  0.29635449     0.10140
S1387       S  0.92172936  0.67203670  0.39334932    -0.33210
S1388       S  0.58228649  0.67961453  0.26489019    -0.33220
H1389       H  0.58611669  0.72392191  0.26931505     0.28150
H1390       H  0.91824374  0.62756529  0.39586190     0.28150
H1391       H  0.94223351  0.72849378  0.32675811     0.18740
H1392       H  0.55643397  0.61787047  0.32502545     0.18750
C1393       C  0.00294302  0.78762368  0.29649960    -0.07090
C1394       C  0.53667713  0.79132909  0.32639837    -0.18210
C1395       C  0.53755655  0.82383324  0.35697511     0.10110
C1396       C  0.00466368  0.85509141  0.35688658    -0.07010
C1397       C  0.97155426  0.85251068  0.32623158    -0.18250
C1398       C  0.96926589  0.81828519  0.29728025     0.10140
S1399       S  0.58105158  0.82195611  0.39564229    -0.33210
S1400       S  0.92065556  0.81408088  0.26568784    -0.33220
H1401       H  0.92100066  0.76953949  0.26154015     0.28150
H1402       H  0.57954334  0.86444857  0.40907763     0.28150
H1403       H  0.56198080  0.76747952  0.32709275     0.18740
H1404       H  0.94563570  0.87577373  0.32683943     0.18750
C1405       C  0.00046402  0.85735769  0.14182879    -0.07090
C1406       C  0.96938140  0.82543404  0.13755795    -0.18210
C1407       C  0.96724484  0.79148112  0.16633231     0.10110
C1408       C  0.99777143  0.78835045  0.20014059    -0.07010
C1409       C  0.52766312  0.82167325  0.20565731    -0.18250
C1410       C  0.52937851  0.85597116  0.17692357     0.10140
S1411       S  0.92369492  0.75374567  0.16032598    -0.33210
S1412       S  0.57081412  0.89536932  0.18535539    -0.33220
H1413       H  0.57924704  0.90231011  0.14168051     0.28150
H1414       H  0.91047784  0.76640867  0.11916370     0.28150
H1415       H  0.94620463  0.82752557  0.11162150     0.18740
H1416       H  0.55154546  0.81976562  0.23094703     0.18750
C1417       C  0.00481104  0.70766326  0.20023353    -0.07090
C1418       C  0.97345685  0.67567604  0.20520702    -0.18210
C1419       C  0.96976550  0.64218508  0.17553075     0.10110
C1420       C  0.99838925  0.64011149  0.14038685    -0.07010
C1421       C  0.53083188  0.67071540  0.13662194    -0.18250
C1422       C  0.53481117  0.70381945  0.16620563     0.10140
S1423       S  0.92586049  0.60527035  0.18235327    -0.33210
S1424       S  0.57921775  0.73986123  0.15823306    -0.33220
H1425       H  0.58394626  0.75195805  0.20121421     0.28150
H1426       H  0.91732241  0.59981661  0.13838993     0.28150
H1427       H  0.94962196  0.67853722  0.23039367     0.18740
H1428       H  0.55374909  0.66852319  0.11047631     0.18750
C1429       C  0.00174584  0.74800162  0.72595314    -0.00400
C1430       C  0.50229335  0.74779129  0.76999480    -0.00400
O1431       O  0.99839918  0.61857966  0.56792474    -0.87450
O1432       O  0.00055711  0.87842823  0.56927934    -0.87620
O1433       O  0.92709379  0.49919271  0.61764828    -0.89290
O1434       O  0.56731638  0.50159934  0.62092321    -0.88040
O1435       O  0.62090537  0.50018223  0.57014765    -0.87630
O1436       O  0.87520655  0.50081964  0.56499813    -0.89000
O1437       O  0.00068999  0.93021146  0.62147193    -0.87480
O1438       O  0.99535298  0.56745338  0.62029472    -0.87070
Zr1439     Zr  0.99807876  0.49849758  0.58457487     2.84310
O1440       O  0.54321008  0.95541303  0.54275925    -1.09040
O1441       O  0.95499038  0.54088403  0.54033090    -1.09770
C1442       C  0.99664621  0.60642985  0.60742670     1.05660
C1443       C  0.00107718  0.89100683  0.60881525     1.05600
C1444       C  0.88760557  0.50055487  0.60445548     1.08580
C1445       C  0.60717747  0.50229910  0.60912642     1.06360
H1446       H  0.93725886  0.93689432  0.55914678     0.31920
O1447       O  0.95524274  0.95459118  0.54138435    -1.30000
H1448       H  0.55953244  0.55981519  0.56009005     0.31590
O1449       O  0.54209547  0.54162299  0.54212904    -1.31670
O1450       O  0.00208740  0.87666790  0.92933940    -0.87450
O1451       O  0.99826915  0.61853879  0.92800796    -0.88940
O1452       O  0.87750129  0.92757136  0.49793297    -0.87520
O1453       O  0.62372222  0.93007899  0.50050765    -0.87570
O1454       O  0.62232042  0.56750599  0.00055068    -0.87280
O1455       O  0.87566156  0.56559285  0.99669222    -0.87090
O1456       O  0.93153737  0.99927706  0.87584580    -0.87460
O1457       O  0.57180870  0.99703516  0.87806098    -0.86920
O1458       O  0.87793826  0.99631866  0.92658429    -0.87990
O1459       O  0.62347929  0.99926625  0.93096347    -0.87140
O1460       O  0.93072391  0.87644783  0.49746425    -0.87540
O1461       O  0.92791571  0.61741812  0.99904300    -0.87270
O1462       O  0.56943992  0.61887896  0.99751313    -0.86920
O1463       O  0.57122365  0.87856765  0.50085396    -0.87320
O1464       O  0.00109263  0.92777625  0.87677516    -0.87620
O1465       O  0.00200454  0.56676686  0.87587279    -0.88960
Zr1466     Zr  0.00037566  0.91225823  0.49886003     2.83100
Zr1467     Zr  0.99899512  0.58384121  0.99781468     2.83500
Zr1468     Zr  0.91247605  0.49707228  0.49663806     2.84090
Zr1469     Zr  0.58674870  0.49856124  0.49982522     2.83360
Zr1470     Zr  0.00110245  0.99753181  0.91179883     2.84220
O1471       O  0.54391584  0.54120849  0.95532422    -1.09530
O1472       O  0.95705043  0.95411431  0.95405489    -1.09030
C1473       C  0.00237910  0.88876578  0.88981620     1.05630
C1474       C  0.99966016  0.60598882  0.88853006     1.08250
C1475       C  0.89084339  0.88855798  0.49758438     1.05800
C1476       C  0.61094450  0.89100501  0.50090108     1.06160
C1477       C  0.60927807  0.60654637  0.99935683     1.05750
C1478       C  0.88829113  0.60469065  0.99812408     1.05300
C1479       C  0.89167028  0.99850893  0.88766231     1.05720
C1480       C  0.61125163  0.99789851  0.89143441     1.05240
H1481       H  0.93831604  0.55809604  0.93602402     0.31910
O1482       O  0.95621069  0.54043822  0.95406494    -1.30630
H1483       H  0.56272768  0.93719259  0.93856342     0.31940
O1484       O  0.54428715  0.95498049  0.95598148    -1.32010
C1485       C  0.77196244  0.51767524  0.74793304    -0.00400
C1486       C  0.72815367  0.51232832  0.74922462    -0.00400
C1487       C  0.72798115  0.74779851  0.00614332    -0.00400
C1488       C  0.77200252  0.74742523  0.00977074    -0.00400
C1489       C  0.85786555  0.85489744  0.49806658    -0.07090
C1490       C  0.82798856  0.85438077  0.53180115    -0.18210
C1491       C  0.79896163  0.82043425  0.53680471     0.10110
C1492       C  0.79895234  0.78681650  0.50636522    -0.07010
C1493       C  0.82799373  0.78853062  0.97183963    -0.18250
C1494       C  0.85745491  0.82173032  0.96746609     0.10140
S1495       S  0.76486570  0.81946334  0.58362968    -0.33210
S1496       S  0.89371552  0.81928597  0.92222887    -0.33220
H1497       H  0.90205101  0.86307852  0.91948982     0.28150
H1498       H  0.77623366  0.85970869  0.60000249     0.28150
H1499       H  0.82896190  0.87971304  0.55543746     0.18740
H1500       H  0.82812143  0.76325524  0.94809619     0.18750
C1501       C  0.79688822  0.70664176  0.00927476    -0.07090
C1502       C  0.79647872  0.68091464  0.97232200    -0.18210
C1503       C  0.82460416  0.64613053  0.96799976     0.10110
C1504       C  0.85498024  0.63789275  0.00091345    -0.07010
C1505       C  0.85441569  0.66278378  0.53823004    -0.18250
C1506       C  0.82509439  0.69615793  0.54315966     0.10140
S1507       S  0.82039946  0.61533188  0.91907435    -0.33210
S1508       S  0.82470595  0.72371015  0.59376474    -0.33220
H1509       H  0.77964015  0.72840406  0.59461290     0.28150
H1510       H  0.85787365  0.59066967  0.92295746     0.28150
H1511       H  0.77504499  0.68885463  0.94606323     0.18740
H1512       H  0.87677714  0.65578436  0.56405783     0.18750
C1513       C  0.64395731  0.85727271  0.50287080    -0.07090
C1514       C  0.63857128  0.82582151  0.53396893    -0.18210
C1515       C  0.66742762  0.79199341  0.53755780     0.10110
C1516       C  0.70195761  0.78794343  0.50819902    -0.07010
C1517       C  0.70831872  0.82032213  0.97786855    -0.18250
C1518       C  0.67987959  0.85500877  0.97499393     0.10140
S1519       S  0.65884190  0.75589140  0.58136742    -0.33210
S1520       S  0.69012606  0.89360662  0.93361663    -0.33220
H1521       H  0.64680946  0.90405077  0.92595462     0.28150
H1522       H  0.70276211  0.74762290  0.58865136     0.28150
H1523       H  0.61184155  0.82800182  0.55626543     0.18740
H1524       H  0.73427403  0.81754639  0.95484337     0.18750
C1525       C  0.64258937  0.63997225  0.00006645    -0.07090
C1526       C  0.64224660  0.67030138  0.96732523    -0.18210
C1527       C  0.67246963  0.70320573  0.96648973     0.10110
C1528       C  0.70260588  0.70756283  0.00035761    -0.07010
C1529       C  0.70448262  0.67571152  0.53181625    -0.18250
C1530       C  0.67485948  0.64215180  0.53210966     0.10140
S1531       S  0.67172732  0.73775165  0.92053500    -0.33210
S1532       S  0.67831865  0.60505172  0.57590334    -0.33220
H1533       H  0.63378043  0.59814208  0.57869068     0.28150
H1534       H  0.71643331  0.74537127  0.92085188     0.28150
H1535       H  0.61863706  0.66790458  0.94175278     0.18740
H1536       H  0.72738339  0.67840331  0.55791341     0.18750
C1537       C  0.79859660  0.01615848  0.78783215    -0.07090
C1538       C  0.79706505  0.97925377  0.81327247    -0.18210
C1539       C  0.82737541  0.97215792  0.84572446     0.10110
C1540       C  0.85933456  0.00298067  0.85374524    -0.07010
C1541       C  0.86078571  0.53985444  0.82888938    -0.18250
C1542       C  0.83113858  0.54673387  0.79604862     0.10140
S1543       S  0.82605591  0.92179590  0.87316469    -0.33210
S1544       S  0.83803132  0.59457041  0.76520389    -0.33220
H1545       H  0.79405352  0.60193856  0.75916132     0.28150
H1546       H  0.87108470  0.91822834  0.87731358     0.28150
H1547       H  0.77398210  0.95443476  0.80589704     0.18740
H1548       H  0.88543557  0.56356184  0.83511358     0.18750
C1549       C  0.64509504  0.99801410  0.85864805    -0.07090
C1550       C  0.67266668  0.53322675  0.85696359    -0.18210
C1551       C  0.70071767  0.53900826  0.82244828     0.10110
C1552       C  0.70344452  0.00737853  0.79005285    -0.07010
C1553       C  0.67753700  0.97089955  0.79352526    -0.18250
C1554       C  0.64804550  0.96611318  0.82679279     0.10140
S1555       S  0.72815491  0.58923760  0.82001840    -0.33210
S1556       S  0.61470534  0.91903841  0.82537624    -0.33220
H1557       H  0.60029932  0.92093657  0.86771804     0.28150
H1558       H  0.71713246  0.59650175  0.77713591     0.28150
H1559       H  0.66995421  0.55805170  0.88107846     0.18740
H1560       H  0.67896756  0.94649327  0.76894506     0.18750
C1561       C  0.63967289  0.50657177  0.64306778    -0.07090
C1562       C  0.67263023  0.97600345  0.64570069    -0.18210
C1563       C  0.70205767  0.97616825  0.67978942     0.10110
C1564       C  0.70076900  0.50999340  0.71000832    -0.07010
C1565       C  0.66779455  0.54054618  0.70686559    -0.18250
C1566       C  0.63715172  0.53910665  0.67431262     0.10140
S1567       S  0.73632600  0.92986930  0.68462531    -0.33210
S1568       S  0.59554687  0.57950259  0.67570404    -0.33220
H1569       H  0.58659164  0.58001868  0.63175234     0.28150
H1570       H  0.74443258  0.93326724  0.72873664     0.28150
H1571       H  0.67364189  0.95016780  0.62256212     0.18740
H1572       H  0.66527301  0.56550841  0.73078736     0.18750
C1573       C  0.79728625  0.51324118  0.70733837    -0.07090
C1574       C  0.82622912  0.97858275  0.70560773    -0.18210
C1575       C  0.85379570  0.97221075  0.67107174     0.10110
C1576       C  0.85412887  0.50195743  0.63758270    -0.07010
C1577       C  0.82453143  0.53580601  0.63791579    -0.18250
C1578       C  0.79610012  0.54205228  0.67230649     0.10140
S1579       S  0.88737141  0.92509369  0.67133249    -0.33210
S1580       S  0.76226389  0.58884808  0.66914244    -0.33220
H1581       H  0.74402678  0.58699846  0.70974960     0.28150
H1582       H  0.88803159  0.91958659  0.62657800     0.28150
H1583       H  0.82701253  0.95561465  0.73140452     0.18740
H1584       H  0.82496457  0.55872739  0.61202992     0.18750
C1585       C  0.00104658  0.70771277  0.79613678    -0.07090
C1586       C  0.96723268  0.70430201  0.82584746    -0.18150
C1587       C  0.96563630  0.67125891  0.85556948     0.10110
C1588       C  0.99792696  0.63944733  0.85532228    -0.07010
C1589       C  0.53098139  0.64161653  0.82474164    -0.18250
C1590       C  0.53386473  0.67609019  0.79635051     0.10140
S1591       S  0.92174167  0.67203773  0.89335669    -0.33210
S1592       S  0.58228592  0.67960907  0.76488122    -0.33220
H1593       H  0.58611921  0.72391605  0.76930736     0.28150
H1594       H  0.91825312  0.62756648  0.89586846     0.28150
H1595       H  0.94224207  0.72849445  0.82676456     0.18740
H1596       H  0.55643654  0.61786540  0.82501841     0.18750
C1597       C  0.00294934  0.78762194  0.79650026    -0.07090
C1598       C  0.53668728  0.79132727  0.82639478    -0.18210
C1599       C  0.53757009  0.82383108  0.85697180     0.10110
C1600       C  0.00467673  0.85508883  0.85688705    -0.07010
C1601       C  0.97156364  0.85250804  0.82623612    -0.18250
C1602       C  0.96927193  0.81828285  0.79728516     0.10140
S1603       S  0.58106976  0.82195372  0.89563401    -0.33210
S1604       S  0.92065744  0.81407818  0.76569907    -0.33220
H1605       H  0.92100274  0.76953694  0.76154991     0.28150
H1606       H  0.57955726  0.86444320  0.90907847     0.28150
H1607       H  0.56199121  0.76747785  0.82708573     0.18740
H1608       H  0.94564480  0.87577072  0.82684731     0.18750
C1609       C  0.00045266  0.85735979  0.64182957    -0.07090
C1610       C  0.96937013  0.82543567  0.63756112    -0.18210
C1611       C  0.96723615  0.79148259  0.66633583     0.10110
C1612       C  0.99776550  0.78835188  0.70014178    -0.07010
C1613       C  0.52765688  0.82167531  0.70565629    -0.18250
C1614       C  0.52936943  0.85597348  0.67692256     0.10140
S1615       S  0.92368594  0.75374697  0.66033306    -0.33210
S1616       S  0.57080473  0.89537243  0.68535193    -0.33220
H1617       H  0.57923650  0.90231139  0.64167651     0.28150
H1618       H  0.91046774  0.76640811  0.61917057     0.28150
H1619       H  0.94619145  0.82752691  0.61162633     0.18740
H1620       H  0.55154132  0.81976800  0.73094406     0.18750
C1621       C  0.00480646  0.70766486  0.70023315    -0.07090
C1622       C  0.97345273  0.67567754  0.70520816    -0.18210
C1623       C  0.96976030  0.64218675  0.67553200     0.10110
C1624       C  0.99838276  0.64011354  0.64038707    -0.07010
C1625       C  0.53082494  0.67071769  0.63662068    -0.18250
C1626       C  0.53480503  0.70382170  0.66620404     0.10140
S1627       S  0.92585572  0.60527181  0.68235612    -0.33210
S1628       S  0.57921063  0.73986423  0.65822980    -0.33220
H1629       H  0.58394122  0.75196067  0.70121085     0.28150
H1630       H  0.91731604  0.59981818  0.63839307     0.28150
H1631       H  0.94961917  0.67853845  0.73039611     0.18740
H1632       H  0.55374113  0.66852571  0.61047414     0.18750
loop_ 
_geom_bond_atom_site_label_1 
_geom_bond_atom_site_label_2 
_geom_bond_distance 
_geom_bond_site_symmetry_2 
_ccdc_geom_bond_type 
C1          C184   1.509       .  S
C1          C193   1.500       .  S
C1          C818   1.375       .  D
C2          C973   1.503       .  S
C2          C985   1.497       .  S
C2          C817   1.375       .  D
O3           C14   1.293       .  A
O3         Zr243   2.441   1_554  S
O4           C15   1.294       .  A
O4          Zr38   2.445   1_554  S
O5           C16   1.291   1_565  A
O5          Zr11   2.432       .  S
O6           C17   1.290       .  A
O6         Zr827   2.427   1_445  S
O7           C17   1.291       .  A
O7          Zr41   2.435   1_544  S
O8           C16   1.289       .  A
O8          Zr40   2.431   1_544  S
O9           C15   1.291       .  A
O9         Zr419   2.439       .  S
O10          C14   1.290       .  A
O10         Zr11   2.433   1_545  S
Zr11        O822   2.427   1_565  S
Zr11        O417   2.439       .  S
Zr11         O13   2.337   1_565  S
Zr11       O1236   2.339       .  S
Zr11        O837   2.342   1_565  S
Zr11        O427   2.339       .  S
O12       Zr1235   2.339   1_455  S
O12        Zr854   2.338   1_554  S
O12        Zr449   2.342   1_554  S
O13         Zr40   2.340   1_544  S
O13        Zr243   2.339   1_554  S
C14         C196   1.473       .  S
C15         C181   1.479       .  S
C16         C148   1.467       .  S
C17         C133   1.466       .  S
H18          O19   0.966       .  S
O19         Zr38   2.338   1_554  S
O19        Zr419   2.339       .  S
O19        Zr448   2.342   1_554  S
H20          O21   0.965       .  S
O21         Zr41   2.338   1_544  S
O21        Zr827   2.342   1_445  S
O21       Zr1059   2.335   1_454  S
O22          C45   1.292       .  A
O22        Zr242   2.437       .  S
O23          C46   1.293       .  A
O23         Zr39   2.440       .  S
O24          C47   1.292       .  A
O24        Zr448   2.440       .  S
O25          C48   1.290       .  A
O25        Zr449   2.434   1_554  S
O26          C49   1.290       .  A
O26        Zr245   2.432   1_545  S
O27          C50   1.290       .  A
O27        Zr244   2.433   1_545  S
O28          C51   1.290       .  A
O28         Zr42   2.429       .  S
O29          C52   1.291       .  A
O29        Zr858   2.433       .  S
O30          C51   1.290       .  A
O30        Zr652   2.433       .  S
O31          C52   1.291       .  A
O31        Zr653   2.434       .  S
O32          C47   1.292       .  A
O32         Zr38   2.437       .  S
O33          C50   1.293       .  A
O33         Zr39   2.440       .  S
O34          C49   1.294       .  A
O34        Zr855   2.448   1_455  S
O35          C48   1.293       .  A
O35        Zr854   2.435   1_554  S
O36          C45   1.293       .  A
O36         Zr42   2.444       .  S
O37          C46   1.294       .  A
O37        Zr450   2.451   1_545  S
Zr38        O226   2.437       .  S
Zr38        O851   2.435   1_556  S
Zr38        O828   2.338   1_556  S
Zr38        O248   2.342       .  S
Zr38       O1076   2.340       .  S
Zr39        O207   2.441       .  S
Zr39        O850   2.448       .  S
Zr39         O54   2.338       .  S
Zr39        O217   2.339       .  S
Zr39       O1041   2.335       .  S
Zr39        O859   2.339       .  S
Zr40        O432   2.440       .  S
Zr40        O231   2.433   1_565  S
Zr40        O642   2.433       .  S
Zr40        O427   2.342   1_556  S
Zr40        O656   2.340       .  S
Zr40        O258   2.343   1_565  S
Zr41        O433   2.434   1_556  S
Zr41        O230   2.432   1_566  S
Zr41        O643   2.434       .  S
Zr41        O420   2.342   1_556  S
Zr41        O247   2.342   1_565  S
Zr41        O668   2.338       .  S
Zr42        O845   2.433       .  S
Zr42        O445   2.451       .  S
Zr42         O44   2.344       .  S
Zr42       O1267   2.340       .  S
Zr42        O872   2.340       .  S
Zr42        O462   2.339       .  S
O43        Zr855   2.339   1_455  S
O43        Zr245   2.342   1_545  S
O43       Zr1266   2.340   1_545  S
O44        Zr242   2.342       .  S
O44        Zr652   2.340       .  S
C45         C172   1.473       .  S
C46         C160   1.480       .  S
C47          C61   1.473       .  S
C48          C85   1.472       .  S
C49          C97   1.474       .  S
C50          C76   1.468       .  S
C51         C112   1.463       .  S
C52         C121   1.467       .  S
H53          O54   0.965       .  S
O54        Zr244   2.343   1_545  S
O54        Zr450   2.339   1_545  S
H55          O56   0.965       .  S
O56       Zr1058   2.340       .  S
O56        Zr653   2.338       .  S
O56        Zr858   2.340       .  S
C57         C145   1.498       .  S
C57         C517   1.494       .  S
C57          C58   1.369       .  D
C58         C136   1.490       .  S
C58         C532   1.497       .  S
C59         C100   1.500       .  S
C59         C292   1.495       .  S
C59          C60   1.369       .  D
C60          C73   1.493       .  S
C60         C268   1.499       .  S
C61          C62   1.404   1_556  A
C61         C270   1.410       .  A
C62          C63   1.406       .  A
C62          H71   1.083       .  S
C63          C64   1.417       .  A
C63          S67   1.806       .  S
C64         C264   1.499       .  S
C64         C269   1.407   1_554  A
C65          C66   1.395       .  A
C65         C268   1.407       .  A
C65          H72   1.084       .  S
C66         C265   1.410       .  A
C66          S68   1.808       .  S
S67          H70   1.407       .  S
S68          H69   1.403       .  S
C73          C74   1.405       .  A
C73         C282   1.411       .  A
C74          C75   1.402       .  A
C74          H83   1.083       .  S
C75          C76   1.416       .  A
C75          S79   1.809       .  S
C76         C281   1.400       .  A
C77          C78   1.393       .  A
C77         C280   1.400       .  A
C77          H84   1.085       .  S
C78         C277   1.411       .  A
C78          S80   1.798       .  S
S79          H82   1.399       .  S
S80          H81   1.404       .  S
C85          C86   1.398       .  A
C85         C294   1.415   1_554  A
C86          C87   1.391       .  A
C86          H95   1.085       .  S
C87          C88   1.415       .  A
C87          S91   1.800       .  S
C88         C263   1.495       .  S
C88         C293   1.407   1_554  A
C89          C90   1.402       .  A
C89         C292   1.407       .  A
C89          H96   1.083       .  S
C90         C289   1.415       .  A
C90          S92   1.804       .  S
S91          H94   1.403       .  S
S92          H93   1.401       .  S
C97          C98   1.400       .  A
C97         C306   1.415       .  A
C98          C99   1.397       .  A
C98         H107   1.084       .  S
C99         C100   1.416       .  A
C99         S103   1.802       .  S
C100        C305   1.406       .  A
C101        C102   1.400       .  A
C101        C304   1.406       .  A
C101        H108   1.083       .  S
C102        C301   1.415       .  A
C102        S104   1.803       .  S
S103        H106   1.407       .  S
S104        H105   1.401       .  S
C109        C465   1.494       .  S
C109        C110   1.408       .  A
C109        C522   1.417       .  A
C110        C111   1.398       .  A
C110        H119   1.083       .  S
C111        C112   1.408       .  A
C111        S115   1.802       .  S
C112        C521   1.397       .  A
C113        C114   1.392       .  A
C113        C520   1.397       .  A
C113        H120   1.085       .  S
C114        C517   1.417       .  A
C114        S116   1.801       .  S
S115        H118   1.406       .  S
S116        H117   1.394       .  S
C121        C126   1.411       .  A
C121        C530   1.401       .  A
C122        C123   1.398       .  A
C122        C529   1.401   1_545  A
C122        H131   1.085       .  S
C123        C532   1.417       .  A
C123        S127   1.796       .  S
C124        C466   1.497       .  S
C124        C125   1.405       .  A
C124        C531   1.417       .  A
C125        C126   1.394       .  A
C125        H132   1.083       .  S
C126        S128   1.806       .  S
S127        H130   1.400       .  S
S128        H129   1.397       .  S
C133        C138   1.412       .  A
C133        C542   1.402   1_545  A
C134        C135   1.400       .  A
C134        C541   1.402       .  A
C134        H143   1.084       .  S
C135        C544   1.418       .  A
C135        S139   1.805       .  S
C136        C137   1.403       .  A
C136        C543   1.418   1_545  A
C137        C138   1.390       .  A
C137        H144   1.083       .  S
C138        S140   1.807       .  S
S139        H142   1.403       .  S
S140        H141   1.399       .  S
C145        C150   1.422       .  A
C145        C554   1.409   1_545  A
C146        C147   1.390       .  A
C146        C553   1.409       .  A
C146        H155   1.083       .  S
C147        C556   1.405       .  A
C147        S151   1.806       .  S
C148        C149   1.402       .  A
C148        C555   1.405   1_545  A
C149        C150   1.403       .  A
C149        H156   1.084       .  S
C150        S152   1.806       .  S
S151        H154   1.407       .  S
S152        H153   1.390       .  S
C157        C818   1.503       .  S
C157        C158   1.405       .  A
C157        C978   1.419       .  A
C158        C159   1.396       .  A
C158        H167   1.084       .  S
C159        C160   1.412       .  A
C159        S163   1.802       .  S
C160        C977   1.404       .  A
C161        C162   1.405       .  A
C161        C976   1.404   1_455  A
C161        H168   1.084       .  S
C162        C973   1.419       .  A
C162        S164   1.799       .  S
S163        H166   1.403       .  S
S164        H165   1.403       .  S
C169        C818   1.497       .  S
C169        C174   1.418       .  A
C169        C986   1.405       .  A
C170        C171   1.395       .  A
C170        C985   1.405       .  A
C170        H179   1.083       .  S
C171        C988   1.413       .  A
C171        S175   1.809       .  S
C172        C173   1.404       .  A
C172        C987   1.413       .  A
C173        C174   1.403       .  A
C173        H180   1.084       .  S
C174        S176   1.804       .  S
S175        H178   1.398       .  S
S176        H177   1.404       .  S
C181        C182   1.398       .  A
C181       C1002   1.415       .  A
C182        C183   1.399       .  A
C182        H191   1.083       .  S
C183        C184   1.419       .  A
C183        S187   1.808       .  S
C184       C1001   1.409       .  A
C185        C186   1.406       .  A
C185       C1000   1.409   1_455  A
C185        H192   1.083       .  S
C186        C997   1.415       .  A
C186        S188   1.804       .  S
S187        H190   1.406       .  S
S188        H189   1.407       .  S
C193        C194   1.409       .  A
C193       C1014   1.417       .  A
C194        C195   1.403       .  A
C194        H203   1.083       .  S
C195        C196   1.413       .  A
C195        S199   1.804       .  S
C196       C1013   1.398       .  A
C197        C198   1.393       .  A
C197       C1012   1.398   1_455  A
C197        H204   1.085       .  S
C198       C1009   1.417       .  A
C198        S200   1.803       .  S
S199        H202   1.407       .  S
S200        H201   1.400       .  S
C205        C388   1.509       .  S
C205        C397   1.500       .  S
C205       C1022   1.375       .  D
C206       C1177   1.503       .  S
C206       C1189   1.497       .  S
C206       C1021   1.375       .  D
O207        C218   1.293       .  A
O208        C219   1.294       .  A
O208       Zr242   2.445       .  S
O209        C220   1.291   1_565  A
O209       Zr215   2.432       .  S
O210        C221   1.290       .  A
O210      Zr1031   2.427   1_445  S
O211        C221   1.291       .  A
O211       Zr245   2.435   1_545  S
O212        C220   1.289       .  A
O212       Zr244   2.431   1_545  S
O213        C219   1.291       .  A
O213       Zr623   2.439       .  S
O214        C218   1.290       .  A
O214       Zr215   2.433   1_545  S
Zr215      O1026   2.427   1_565  S
Zr215       O621   2.439       .  S
Zr215      O1440   2.339       .  S
Zr215       O217   2.337   1_565  S
Zr215      O1041   2.342   1_565  S
Zr215       O631   2.339       .  S
O216      Zr1439   2.339   1_455  S
O216      Zr1058   2.338       .  S
O216       Zr653   2.342       .  S
O217       Zr244   2.340   1_545  S
C218        C400   1.473       .  S
C219        C385   1.479       .  S
C220        C352   1.467       .  S
C221        C337   1.466       .  S
H222        O223   0.966       .  S
O223       Zr623   2.339       .  S
O223       Zr242   2.338       .  S
O223       Zr652   2.342       .  S
H224        O225   0.965       .  S
O225      Zr1031   2.342   1_445  S
O225       Zr855   2.335   1_455  S
O225       Zr245   2.338   1_545  S
O226        C249   1.292       .  A
O227        C250   1.293       .  A
O227       Zr243   2.440       .  S
O228        C251   1.292       .  A
O228       Zr652   2.440       .  S
O229        C252   1.290       .  A
O229       Zr653   2.434       .  S
O230        C253   1.290   1_554  A
O231        C254   1.290       .  A
O232        C255   1.290       .  A
O232       Zr246   2.429       .  S
O233        C256   1.291       .  A
O233      Zr1062   2.433       .  S
O234        C255   1.290       .  A
O234       Zr448   2.433       .  S
O235        C256   1.291       .  A
O235       Zr449   2.434       .  S
O236        C251   1.292       .  A
O236       Zr242   2.437       .  S
O237        C254   1.293       .  A
O237       Zr243   2.440       .  S
O238        C253   1.294       .  A
O238      Zr1059   2.448   1_455  S
O239        C252   1.293       .  A
O239      Zr1058   2.435       .  S
O240        C249   1.293       .  A
O240       Zr246   2.444       .  S
O241        C250   1.294       .  A
O241       Zr654   2.451   1_545  S
Zr242      O1055   2.435       .  S
Zr242      O1032   2.338       .  S
Zr242       O872   2.340       .  S
Zr243      O1054   2.448       .  S
Zr243       O837   2.335   1_556  S
Zr243      O1063   2.339       .  S
Zr243       O258   2.338       .  S
Zr244       O636   2.440       .  S
Zr244       O438   2.433       .  S
Zr244       O631   2.342       .  S
Zr244       O452   2.340       .  S
Zr245       O637   2.434       .  S
Zr245       O439   2.434       .  S
Zr245       O624   2.342       .  S
Zr245       O464   2.338       .  S
Zr246      O1049   2.433       .  S
Zr246       O649   2.451       .  S
Zr246      O1471   2.340       .  S
Zr246       O248   2.344       .  S
Zr246      O1076   2.340       .  S
Zr246       O666   2.339       .  S
O247      Zr1059   2.339   1_455  S
O247      Zr1470   2.340   1_545  S
O248       Zr448   2.340       .  S
C249        C376   1.473       .  S
C250        C364   1.480       .  S
C251        C265   1.473       .  S
C252        C289   1.472       .  S
C253        C301   1.474   1_556  S
C254        C280   1.468   1_556  S
C255        C316   1.463       .  S
C256        C325   1.467       .  S
H257        O258   0.965       .  S
O258       Zr654   2.339   1_545  S
H259        O260   0.965       .  S
O260       Zr854   2.340       .  S
O260       Zr449   2.338       .  S
O260      Zr1062   2.340       .  S
C261        C721   1.494       .  S
C261        C349   1.498       .  S
C261        C262   1.369       .  D
C262        C736   1.497       .  S
C262        C340   1.490       .  S
C263        C304   1.500       .  S
C263        C264   1.369       .  D
C264        C277   1.493       .  S
C265        C266   1.404       .  A
C266        C267   1.406       .  A
C266        H275   1.083       .  S
C267        C268   1.417       .  A
C267        S271   1.806       .  S
C269        C270   1.395       .  A
C269        H276   1.084       .  S
C270        S272   1.808       .  S
S271        H274   1.407       .  S
S272        H273   1.403       .  S
C277        C278   1.405   1_554  A
C278        C279   1.402       .  A
C278        H287   1.083       .  S
C279        C280   1.416   1_556  A
C279        S283   1.809       .  S
C281        C282   1.393       .  A
C281        H288   1.085       .  S
C282        S284   1.798       .  S
S283        H286   1.399       .  S
S284        H285   1.404       .  S
C289        C290   1.398       .  A
C290        C291   1.391       .  A
C290        H299   1.085       .  S
C291        C292   1.415       .  A
C291        S295   1.800       .  S
C293        C294   1.402       .  A
C293        H300   1.083       .  S
C294        S296   1.804       .  S
S295        H298   1.403       .  S
S296        H297   1.401       .  S
C301        C302   1.400   1_554  A
C302        C303   1.397       .  A
C302        H311   1.084       .  S
C303        C304   1.416   1_556  A
C303        S307   1.802       .  S
C305        C306   1.400       .  A
C305        H312   1.083       .  S
C306        S308   1.803       .  S
S307        H310   1.407       .  S
S308        H309   1.401       .  S
C313        C669   1.494       .  S
C313        C314   1.408       .  A
C313        C726   1.417       .  A
C314        C315   1.398       .  A
C314        H323   1.083       .  S
C315        C316   1.408       .  A
C315        S319   1.802       .  S
C316        C725   1.397       .  A
C317        C724   1.397       .  A
C317        C318   1.392       .  A
C317        H324   1.085       .  S
C318        C721   1.417       .  A
C318        S320   1.801       .  S
S319        H322   1.406       .  S
S320        H321   1.394       .  S
C325        C734   1.401       .  A
C325        C330   1.411       .  A
C326        C733   1.401   1_545  A
C326        C327   1.398       .  A
C326        H335   1.085       .  S
C327        C736   1.417       .  A
C327        S331   1.796       .  S
C328        C670   1.497       .  S
C328        C735   1.417       .  A
C328        C329   1.405       .  A
C329        C330   1.394       .  A
C329        H336   1.083       .  S
C330        S332   1.806       .  S
S331        H334   1.400       .  S
S332        H333   1.397       .  S
C337        C746   1.402   1_545  A
C337        C342   1.412       .  A
C338        C745   1.402       .  A
C338        C339   1.400       .  A
C338        H347   1.084       .  S
C339        C748   1.418       .  A
C339        S343   1.805       .  S
C340        C747   1.418   1_545  A
C340        C341   1.403       .  A
C341        C342   1.390       .  A
C341        H348   1.083       .  S
C342        S344   1.807       .  S
S343        H346   1.403       .  S
S344        H345   1.399       .  S
C349        C758   1.409   1_545  A
C349        C354   1.422       .  A
C350        C757   1.409       .  A
C350        C351   1.390       .  A
C350        H359   1.083       .  S
C351        C760   1.405       .  A
C351        S355   1.806       .  S
C352        C759   1.405   1_545  A
C352        C353   1.402       .  A
C353        C354   1.403       .  A
C353        H360   1.084       .  S
C354        S356   1.806       .  S
S355        H358   1.407       .  S
S356        H357   1.390       .  S
C361       C1022   1.503       .  S
C361        C362   1.405       .  A
C361       C1182   1.419       .  A
C362        C363   1.396       .  A
C362        H371   1.084       .  S
C363        C364   1.412       .  A
C363        S367   1.802       .  S
C364       C1181   1.404       .  A
C365       C1180   1.404   1_455  A
C365        C366   1.405       .  A
C365        H372   1.084       .  S
C366       C1177   1.419       .  A
C366        S368   1.799       .  S
S367        H370   1.403       .  S
S368        H369   1.403       .  S
C373       C1022   1.497       .  S
C373       C1190   1.405       .  A
C373        C378   1.418       .  A
C374       C1189   1.405       .  A
C374        C375   1.395       .  A
C374        H383   1.083       .  S
C375       C1192   1.413       .  A
C375        S379   1.809       .  S
C376       C1191   1.413       .  A
C376        C377   1.404       .  A
C377        C378   1.403       .  A
C377        H384   1.084       .  S
C378        S380   1.804       .  S
S379        H382   1.398       .  S
S380        H381   1.404       .  S
C385        C386   1.398       .  A
C385       C1206   1.415       .  A
C386        C387   1.399       .  A
C386        H395   1.083       .  S
C387        C388   1.419       .  A
C387        S391   1.808       .  S
C388       C1205   1.409       .  A
C389       C1204   1.409   1_455  A
C389        C390   1.406       .  A
C389        H396   1.083       .  S
C390       C1201   1.415       .  A
C390        S392   1.804       .  S
S391        H394   1.406       .  S
S392        H393   1.407       .  S
C397        C398   1.409       .  A
C397       C1218   1.417       .  A
C398        C399   1.403       .  A
C398        H407   1.083       .  S
C399        C400   1.413       .  A
C399        S403   1.804       .  S
C400       C1217   1.398       .  A
C401       C1216   1.398   1_455  A
C401        C402   1.393       .  A
C401        H408   1.085       .  S
C402       C1213   1.417       .  A
C402        S404   1.803       .  S
S403        H406   1.407       .  S
S404        H405   1.400       .  S
C409        C592   1.509       .  S
C409        C601   1.500       .  S
C409       C1226   1.375       .  D
C410       C1381   1.503       .  S
C410       C1393   1.497       .  S
C410       C1225   1.375       .  D
O411        C422   1.293       .  A
O411       Zr651   2.441   1_554  S
O412        C423   1.294       .  A
O412       Zr446   2.445   1_554  S
O413        C424   1.291       .  A
O413       Zr419   2.432       .  S
O414        C425   1.290       .  A
O414      Zr1235   2.427   1_455  S
O415        C425   1.291       .  A
O415       Zr449   2.435   1_554  S
O416        C424   1.289       .  A
O416       Zr448   2.431   1_554  S
O417        C423   1.291       .  A
O418        C422   1.290       .  A
O418       Zr419   2.433       .  S
Zr419      O1230   2.427       .  S
Zr419       O828   2.339       .  S
Zr419       O421   2.337       .  S
Zr419      O1245   2.342       .  S
O420       Zr827   2.339   1_455  S
O420      Zr1262   2.338   1_554  S
O421       Zr651   2.339   1_554  S
O421       Zr448   2.340   1_554  S
C422        C604   1.473       .  S
C423        C589   1.479       .  S
C424        C556   1.467       .  S
C425        C541   1.466       .  S
H426        O427   0.966       .  S
O427       Zr446   2.338   1_554  S
H428        O429   0.965       .  S
O429      Zr1235   2.342   1_455  S
O429      Zr1467   2.335   1_454  S
O429       Zr449   2.338   1_554  S
O430        C453   1.292       .  A
O430       Zr650   2.437       .  S
O431        C454   1.293       .  A
O431       Zr447   2.440       .  S
O432        C455   1.292       .  A
O433        C456   1.290       .  A
O434        C457   1.290       .  A
O434       Zr653   2.432       .  S
O435        C458   1.290       .  A
O435       Zr652   2.433       .  S
O436        C459   1.290       .  A
O436       Zr450   2.429       .  S
O437        C460   1.291       .  A
O437      Zr1266   2.433       .  S
O438        C459   1.290       .  A
O439        C460   1.291       .  A
O440        C455   1.292       .  A
O440       Zr446   2.437       .  S
O441        C458   1.293       .  A
O441       Zr447   2.440       .  S
O442        C457   1.294       .  A
O442      Zr1263   2.448   1_455  S
O443        C456   1.293       .  A
O443      Zr1262   2.435   1_554  S
O444        C453   1.293       .  A
O444       Zr450   2.444       .  S
O445        C454   1.294       .  A
Zr446       O634   2.437       .  S
Zr446      O1259   2.435   1_556  S
Zr446      O1236   2.338   1_556  S
Zr446       O656   2.342       .  S
Zr446      O1484   2.340       .  S
Zr447       O615   2.441       .  S
Zr447      O1258   2.448       .  S
Zr447       O625   2.339       .  S
Zr447      O1449   2.335       .  S
Zr447      O1267   2.339       .  S
Zr447       O462   2.338       .  S
Zr448       O639   2.433       .  S
Zr448       O666   2.343       .  S
Zr449       O638   2.432   1_556  S
Zr449       O655   2.342       .  S
Zr450      O1253   2.433       .  S
Zr450       O859   2.340   1_565  S
Zr450       O452   2.344       .  S
Zr450      O1280   2.340       .  S
O451      Zr1263   2.339   1_455  S
O451       Zr653   2.342       .  S
O451       Zr858   2.340       .  S
O452       Zr650   2.342       .  S
C453        C580   1.473       .  S
C454        C568   1.480       .  S
C455        C469   1.473       .  S
C456        C493   1.472       .  S
C457        C505   1.474       .  S
C458        C484   1.468       .  S
C459        C520   1.463   1_565  S
C460        C529   1.467       .  S
H461        O462   0.965       .  S
O462       Zr652   2.343       .  S
H463        O464   0.965       .  S
O464      Zr1466   2.340       .  S
O464      Zr1266   2.340       .  S
C465        C553   1.498       .  S
C465        C466   1.369       .  D
C466        C544   1.490       .  S
C467        C700   1.495       .  S
C467        C508   1.500       .  S
C467        C468   1.369       .  D
C468        C676   1.499       .  S
C468        C481   1.493       .  S
C469        C470   1.404   1_556  A
C469        C678   1.410       .  A
C470        C471   1.406       .  A
C470        H479   1.083       .  S
C471        C472   1.417       .  A
C471        S475   1.806       .  S
C472        C672   1.499       .  S
C472        C677   1.407   1_554  A
C473        C676   1.407       .  A
C473        C474   1.395       .  A
C473        H480   1.084       .  S
C474        C673   1.410       .  A
C474        S476   1.808       .  S
S475        H478   1.407       .  S
S476        H477   1.403       .  S
C481        C482   1.405       .  A
C481        C690   1.411       .  A
C482        C483   1.402       .  A
C482        H491   1.083       .  S
C483        C484   1.416       .  A
C483        S487   1.809       .  S
C484        C689   1.400       .  A
C485        C688   1.400       .  A
C485        C486   1.393       .  A
C485        H492   1.085       .  S
C486        C685   1.411       .  A
C486        S488   1.798       .  S
S487        H490   1.399       .  S
S488        H489   1.404       .  S
C493        C494   1.398       .  A
C493        C702   1.415   1_554  A
C494        C495   1.391       .  A
C494        H503   1.085       .  S
C495        C496   1.415       .  A
C495        S499   1.800       .  S
C496        C671   1.495       .  S
C496        C701   1.407   1_554  A
C497        C700   1.407       .  A
C497        C498   1.402       .  A
C497        H504   1.083       .  S
C498        C697   1.415       .  A
C498        S500   1.804       .  S
S499        H502   1.403       .  S
S500        H501   1.401       .  S
C505        C506   1.400       .  A
C505        C714   1.415       .  A
C506        C507   1.397       .  A
C506        H515   1.084       .  S
C507        C508   1.416       .  A
C507        S511   1.802       .  S
C508        C713   1.406       .  A
C509        C712   1.406       .  A
C509        C510   1.400       .  A
C509        H516   1.083       .  S
C510        C709   1.415       .  A
C510        S512   1.803       .  S
S511        H514   1.407       .  S
S512        H513   1.401       .  S
C517        C518   1.408   1_545  A
C518        C519   1.398       .  A
C518        H527   1.083       .  S
C519        C520   1.408   1_565  A
C519        S523   1.802       .  S
C521        C522   1.392       .  A
C521        H528   1.085       .  S
C522        S524   1.801       .  S
S523        H526   1.406       .  S
S524        H525   1.394       .  S
C529        C534   1.411       .  A
C530        C531   1.398       .  A
C530        H539   1.085       .  S
C531        S535   1.796       .  S
C532        C533   1.405   1_545  A
C533        C534   1.394       .  A
C533        H540   1.083       .  S
C534        S536   1.806       .  S
S535        H538   1.400       .  S
S536        H537   1.397       .  S
C541        C546   1.412       .  A
C542        C543   1.400       .  A
C542        H551   1.084       .  S
C543        S547   1.805       .  S
C544        C545   1.403       .  A
C545        C546   1.390       .  A
C545        H552   1.083       .  S
C546        S548   1.807       .  S
S547        H550   1.403       .  S
S548        H549   1.399       .  S
C553        C558   1.422       .  A
C554        C555   1.390       .  A
C554        H563   1.083       .  S
C555        S559   1.806       .  S
C556        C557   1.402       .  A
C557        C558   1.403       .  A
C557        H564   1.084       .  S
C558        S560   1.806       .  S
S559        H562   1.407       .  S
S560        H561   1.390       .  S
C565       C1226   1.503       .  S
C565        C566   1.405       .  A
C565       C1386   1.419       .  A
C566        C567   1.396       .  A
C566        H575   1.084       .  S
C567        C568   1.412       .  A
C567        S571   1.802       .  S
C568       C1385   1.404       .  A
C569       C1384   1.404   1_455  A
C569        C570   1.405       .  A
C569        H576   1.084       .  S
C570       C1381   1.419       .  A
C570        S572   1.799       .  S
S571        H574   1.403       .  S
S572        H573   1.403       .  S
C577       C1226   1.497       .  S
C577       C1394   1.405       .  A
C577        C582   1.418       .  A
C578       C1393   1.405       .  A
C578        C579   1.395       .  A
C578        H587   1.083       .  S
C579       C1396   1.413       .  A
C579        S583   1.809       .  S
C580       C1395   1.413       .  A
C580        C581   1.404       .  A
C581        C582   1.403       .  A
C581        H588   1.084       .  S
C582        S584   1.804       .  S
S583        H586   1.398       .  S
S584        H585   1.404       .  S
C589        C590   1.398       .  A
C589       C1410   1.415       .  A
C590        C591   1.399       .  A
C590        H599   1.083       .  S
C591        C592   1.419       .  A
C591        S595   1.808       .  S
C592       C1409   1.409       .  A
C593       C1408   1.409   1_455  A
C593        C594   1.406       .  A
C593        H600   1.083       .  S
C594       C1405   1.415       .  A
C594        S596   1.804       .  S
S595        H598   1.406       .  S
S596        H597   1.407       .  S
C601        C602   1.409       .  A
C601       C1422   1.417       .  A
C602        C603   1.403       .  A
C602        H611   1.083       .  S
C603        C604   1.413       .  A
C603        S607   1.804       .  S
C604       C1421   1.398       .  A
C605       C1420   1.398   1_455  A
C605        C606   1.393       .  A
C605        H612   1.085       .  S
C606       C1417   1.417       .  A
C606        S608   1.803       .  S
S607        H610   1.407       .  S
S608        H609   1.400       .  S
C613        C796   1.509       .  S
C613        C805   1.500       .  S
C613       C1430   1.375       .  D
C614       C1585   1.503       .  S
C614       C1597   1.497       .  S
C614       C1429   1.375       .  D
O615        C626   1.293       .  A
O616        C627   1.294       .  A
O616       Zr650   2.445       .  S
O617        C628   1.291       .  A
O617       Zr623   2.432       .  S
O618        C629   1.290       .  A
O618      Zr1439   2.427   1_455  S
O619        C629   1.291       .  A
O619       Zr653   2.435       .  S
O620        C628   1.289       .  A
O620       Zr652   2.431       .  S
O621        C627   1.291       .  A
O622        C626   1.290       .  A
O622       Zr623   2.433       .  S
Zr623      O1434   2.427       .  S
Zr623      O1032   2.339       .  S
Zr623       O625   2.337       .  S
Zr623      O1449   2.342       .  S
O624      Zr1031   2.339   1_455  S
O624      Zr1466   2.338       .  S
O625       Zr652   2.340       .  S
C626        C808   1.473       .  S
C627        C793   1.479       .  S
C628        C760   1.467       .  S
C629        C745   1.466       .  S
H630        O631   0.966       .  S
O631       Zr650   2.338       .  S
H632        O633   0.965       .  S
O633      Zr1439   2.342   1_455  S
O633      Zr1263   2.335   1_455  S
O633       Zr653   2.338       .  S
O634        C657   1.292       .  A
O635        C658   1.293       .  A
O635       Zr651   2.440       .  S
O636        C659   1.292       .  A
O637        C660   1.290       .  A
O638        C661   1.290   1_554  A
O639        C662   1.290       .  A
O640        C663   1.290       .  A
O640       Zr654   2.429       .  S
O641        C664   1.291       .  A
O641      Zr1470   2.433       .  S
O642        C663   1.290       .  A
O643        C664   1.291       .  A
O644        C659   1.292       .  A
O644       Zr650   2.437       .  S
O645        C662   1.293       .  A
O645       Zr651   2.440       .  S
O646        C661   1.294       .  A
O646      Zr1467   2.448   1_455  S
O647        C660   1.293       .  A
O647      Zr1466   2.435       .  S
O648        C657   1.293       .  A
O648       Zr654   2.444       .  S
O649        C658   1.294       .  A
Zr650      O1463   2.435       .  S
Zr650      O1440   2.338       .  S
Zr650      O1280   2.340       .  S
Zr651      O1462   2.448       .  S
Zr651      O1245   2.335   1_556  S
Zr651      O1471   2.339       .  S
Zr651       O666   2.338       .  S
Zr654      O1457   2.433       .  S
Zr654      O1063   2.340   1_565  S
Zr654       O656   2.344       .  S
Zr654      O1484   2.340       .  S
O655      Zr1467   2.339   1_455  S
O655      Zr1062   2.340       .  S
C657        C784   1.473       .  S
C658        C772   1.480       .  S
C659        C673   1.473       .  S
C660        C697   1.472       .  S
C661        C709   1.474   1_556  S
C662        C688   1.468   1_556  S
C663        C724   1.463   1_565  S
C664        C733   1.467       .  S
H665        O666   0.965       .  S
H667        O668   0.965       .  S
O668      Zr1262   2.340       .  S
O668      Zr1470   2.340       .  S
C669        C757   1.498       .  S
C669        C670   1.369       .  D
C670        C748   1.490       .  S
C671        C712   1.500       .  S
C671        C672   1.369       .  D
C672        C685   1.493       .  S
C673        C674   1.404       .  A
C674        C675   1.406       .  A
C674        H683   1.083       .  S
C675        C676   1.417       .  A
C675        S679   1.806       .  S
C677        C678   1.395       .  A
C677        H684   1.084       .  S
C678        S680   1.808       .  S
S679        H682   1.407       .  S
S680        H681   1.403       .  S
C685        C686   1.405   1_554  A
C686        C687   1.402       .  A
C686        H695   1.083       .  S
C687        C688   1.416   1_556  A
C687        S691   1.809       .  S
C689        C690   1.393       .  A
C689        H696   1.085       .  S
C690        S692   1.798       .  S
S691        H694   1.399       .  S
S692        H693   1.404       .  S
C697        C698   1.398       .  A
C698        C699   1.391       .  A
C698        H707   1.085       .  S
C699        C700   1.415       .  A
C699        S703   1.800       .  S
C701        C702   1.402       .  A
C701        H708   1.083       .  S
C702        S704   1.804       .  S
S703        H706   1.403       .  S
S704        H705   1.401       .  S
C709        C710   1.400   1_554  A
C710        C711   1.397       .  A
C710        H719   1.084       .  S
C711        C712   1.416   1_556  A
C711        S715   1.802       .  S
C713        C714   1.400       .  A
C713        H720   1.083       .  S
C714        S716   1.803       .  S
S715        H718   1.407       .  S
S716        H717   1.401       .  S
C721        C722   1.408   1_545  A
C722        C723   1.398       .  A
C722        H731   1.083       .  S
C723        C724   1.408   1_565  A
C723        S727   1.802       .  S
C725        C726   1.392       .  A
C725        H732   1.085       .  S
C726        S728   1.801       .  S
S727        H730   1.406       .  S
S728        H729   1.394       .  S
C733        C738   1.411       .  A
C734        C735   1.398       .  A
C734        H743   1.085       .  S
C735        S739   1.796       .  S
C736        C737   1.405   1_545  A
C737        C738   1.394       .  A
C737        H744   1.083       .  S
C738        S740   1.806       .  S
S739        H742   1.400       .  S
S740        H741   1.397       .  S
C745        C750   1.412       .  A
C746        C747   1.400       .  A
C746        H755   1.084       .  S
C747        S751   1.805       .  S
C748        C749   1.403       .  A
C749        C750   1.390       .  A
C749        H756   1.083       .  S
C750        S752   1.807       .  S
S751        H754   1.403       .  S
S752        H753   1.399       .  S
C757        C762   1.422       .  A
C758        C759   1.390       .  A
C758        H767   1.083       .  S
C759        S763   1.806       .  S
C760        C761   1.402       .  A
C761        C762   1.403       .  A
C761        H768   1.084       .  S
C762        S764   1.806       .  S
S763        H766   1.407       .  S
S764        H765   1.390       .  S
C769       C1430   1.503       .  S
C769        C770   1.405       .  A
C769       C1590   1.419       .  A
C770        C771   1.396       .  A
C770        H779   1.084       .  S
C771        C772   1.412       .  A
C771        S775   1.802       .  S
C772       C1589   1.404       .  A
C773       C1588   1.404   1_455  A
C773        C774   1.405       .  A
C773        H780   1.084       .  S
C774       C1585   1.419       .  A
C774        S776   1.799       .  S
S775        H778   1.403       .  S
S776        H777   1.403       .  S
C781       C1430   1.497       .  S
C781       C1598   1.405       .  A
C781        C786   1.418       .  A
C782       C1597   1.405       .  A
C782        C783   1.395       .  A
C782        H791   1.083       .  S
C783       C1600   1.413       .  A
C783        S787   1.809       .  S
C784       C1599   1.413       .  A
C784        C785   1.404       .  A
C785        C786   1.403       .  A
C785        H792   1.084       .  S
C786        S788   1.804       .  S
S787        H790   1.398       .  S
S788        H789   1.404       .  S
C793        C794   1.398       .  A
C793       C1614   1.415       .  A
C794        C795   1.399       .  A
C794        H803   1.083       .  S
C795        C796   1.419       .  A
C795        S799   1.808       .  S
C796       C1613   1.409       .  A
C797       C1612   1.409   1_455  A
C797        C798   1.406       .  A
C797        H804   1.083       .  S
C798       C1609   1.415       .  A
C798        S800   1.804       .  S
S799        H802   1.406       .  S
S800        H801   1.407       .  S
C805        C806   1.409       .  A
C805       C1626   1.417       .  A
C806        C807   1.403       .  A
C806        H815   1.083       .  S
C807        C808   1.413       .  A
C807        S811   1.804       .  S
C808       C1625   1.398       .  A
C809       C1624   1.398   1_455  A
C809        C810   1.393       .  A
C809        H816   1.085       .  S
C810       C1621   1.417       .  A
C810        S812   1.803       .  S
S811        H814   1.407       .  S
S812        H813   1.400       .  S
C817       C1000   1.509   1_455  S
C817       C1009   1.500       .  S
O819        C830   1.293       .  A
O819      Zr1059   2.441   1_554  S
O820        C831   1.294       .  A
O820       Zr854   2.445   1_554  S
O821        C832   1.291   1_565  A
O821       Zr827   2.432       .  S
O822        C833   1.290       .  A
O823        C833   1.291       .  A
O823       Zr857   2.435   1_544  S
O824        C832   1.289       .  A
O824       Zr856   2.431   1_544  S
O825        C831   1.291       .  A
O825      Zr1235   2.439   1_455  S
O826        C830   1.290       .  A
O826       Zr827   2.433   1_545  S
Zr827      O1233   2.439   1_655  S
Zr827       O829   2.337   1_565  S
Zr827      O1243   2.339       .  S
O828      Zr1265   2.342   1_554  S
O829      Zr1059   2.339   1_554  S
O829       Zr856   2.340   1_544  S
C830       C1012   1.473       .  S
C831        C997   1.479       .  S
C832        C964   1.467       .  S
C833        C949   1.466       .  S
H834        O835   0.966       .  S
O835      Zr1235   2.339       .  S
O835       Zr854   2.338   1_654  S
O835      Zr1264   2.342   1_554  S
H836        O837   0.965       .  S
O837       Zr857   2.338   1_544  S
O838        C861   1.292       .  A
O838      Zr1058   2.437       .  S
O839        C862   1.293       .  A
O839       Zr855   2.440       .  S
O840        C863   1.292       .  A
O840      Zr1264   2.440       .  S
O841        C864   1.290       .  A
O841      Zr1265   2.434   1_554  S
O842        C865   1.290       .  A
O842      Zr1061   2.432   1_545  S
O843        C866   1.290       .  A
O843      Zr1060   2.433   1_545  S
O844        C867   1.290       .  A
O844       Zr858   2.429   1_655  S
O845        C868   1.291       .  A
O846        C867   1.290       .  A
O846      Zr1468   2.433       .  S
O847        C868   1.291       .  A
O847      Zr1469   2.434       .  S
O848        C863   1.292       .  A
O848       Zr854   2.437   1_655  S
O849        C866   1.293       .  A
O849       Zr855   2.440       .  S
O850        C865   1.294       .  A
O851        C864   1.293       .  A
O852        C861   1.293       .  A
O852       Zr858   2.444       .  S
O853        C862   1.294   1_455  A
O853      Zr1266   2.451   1_545  S
Zr854      O1042   2.437       .  S
Zr854      O1064   2.342   1_455  S
Zr855      O1023   2.441       .  S
Zr855      O1033   2.339       .  S
Zr855       O870   2.338       .  S
Zr856      O1248   2.440       .  S
Zr856      O1047   2.433   1_565  S
Zr856      O1458   2.433       .  S
Zr856      O1243   2.342   1_556  S
Zr856      O1472   2.340       .  S
Zr856      O1074   2.343   1_565  S
Zr857      O1249   2.434   1_556  S
Zr857      O1046   2.432   1_566  S
Zr857      O1459   2.434       .  S
Zr857      O1236   2.342   1_556  S
Zr857      O1063   2.342   1_565  S
Zr857      O1484   2.338       .  S
Zr858      O1261   2.451       .  S
Zr858       O860   2.344   1_455  S
Zr858      O1278   2.339   1_455  S
O859      Zr1061   2.342   1_545  S
O860      Zr1058   2.342   1_655  S
O860      Zr1468   2.340       .  S
C861        C988   1.473       .  S
C862        C976   1.480       .  S
C863        C877   1.473       .  S
C864        C901   1.472       .  S
C865        C913   1.474       .  S
C866        C892   1.468       .  S
C867        C928   1.463       .  S
C868        C937   1.467       .  S
H869        O870   0.965       .  S
O870      Zr1060   2.343   1_545  S
O870      Zr1266   2.339   1_645  S
H871        O872   0.965       .  S
O872      Zr1469   2.338       .  S
C873       C1333   1.494       .  S
C873        C961   1.498       .  S
C873        C874   1.369       .  D
C874       C1348   1.497       .  S
C874        C952   1.490       .  S
C875       C1108   1.495       .  S
C875        C916   1.500       .  S
C875        C876   1.369       .  D
C876       C1084   1.499       .  S
C876        C889   1.493       .  S
C877        C878   1.404   1_556  A
C877       C1086   1.410       .  A
C878        C879   1.406       .  A
C878        H887   1.083       .  S
C879        C880   1.417       .  A
C879        S883   1.806       .  S
C880       C1080   1.499       .  S
C880       C1085   1.407   1_554  A
C881       C1084   1.407       .  A
C881        C882   1.395       .  A
C881        H888   1.084       .  S
C882       C1081   1.410       .  A
C882        S884   1.808       .  S
S883        H886   1.407       .  S
S884        H885   1.403       .  S
C889        C890   1.405       .  A
C889       C1098   1.411       .  A
C890        C891   1.402       .  A
C890        H899   1.083       .  S
C891        C892   1.416       .  A
C891        S895   1.809       .  S
C892       C1097   1.400       .  A
C893       C1096   1.400       .  A
C893        C894   1.393       .  A
C893        H900   1.085       .  S
C894       C1093   1.411       .  A
C894        S896   1.798       .  S
S895        H898   1.399       .  S
S896        H897   1.404       .  S
C901        C902   1.398       .  A
C901       C1110   1.415   1_554  A
C902        C903   1.391       .  A
C902        H911   1.085       .  S
C903        C904   1.415       .  A
C903        S907   1.800       .  S
C904       C1079   1.495       .  S
C904       C1109   1.407   1_554  A
C905       C1108   1.407       .  A
C905        C906   1.402       .  A
C905        H912   1.083       .  S
C906       C1105   1.415       .  A
C906        S908   1.804       .  S
S907        H910   1.403       .  S
S908        H909   1.401       .  S
C913        C914   1.400       .  A
C913       C1122   1.415       .  A
C914        C915   1.397       .  A
C914        H923   1.084       .  S
C915        C916   1.416       .  A
C915        S919   1.802       .  S
C916       C1121   1.406       .  A
C917       C1120   1.406       .  A
C917        C918   1.400       .  A
C917        H924   1.083       .  S
C918       C1117   1.415       .  A
C918        S920   1.803       .  S
S919        H922   1.407       .  S
S920        H921   1.401       .  S
C925       C1281   1.494       .  S
C925        C926   1.408       .  A
C925       C1338   1.417       .  A
C926        C927   1.398       .  A
C926        H935   1.083       .  S
C927        C928   1.408       .  A
C927        S931   1.802       .  S
C928       C1337   1.397       .  A
C929       C1336   1.397       .  A
C929        C930   1.392       .  A
C929        H936   1.085       .  S
C930       C1333   1.417       .  A
C930        S932   1.801       .  S
S931        H934   1.406       .  S
S932        H933   1.394       .  S
C937       C1346   1.401       .  A
C937        C942   1.411       .  A
C938       C1345   1.401   1_545  A
C938        C939   1.398       .  A
C938        H947   1.085       .  S
C939       C1348   1.417       .  A
C939        S943   1.796       .  S
C940       C1282   1.497       .  S
C940       C1347   1.417       .  A
C940        C941   1.405       .  A
C941        C942   1.394       .  A
C941        H948   1.083       .  S
C942        S944   1.806       .  S
S943        H946   1.400       .  S
S944        H945   1.397       .  S
C949       C1358   1.402   1_545  A
C949        C954   1.412       .  A
C950       C1357   1.402       .  A
C950        C951   1.400       .  A
C950        H959   1.084       .  S
C951       C1360   1.418       .  A
C951        S955   1.805       .  S
C952       C1359   1.418   1_545  A
C952        C953   1.403       .  A
C953        C954   1.390       .  A
C953        H960   1.083       .  S
C954        S956   1.807       .  S
S955        H958   1.403       .  S
S956        H957   1.399       .  S
C961       C1370   1.409   1_545  A
C961        C966   1.422       .  A
C962       C1369   1.409       .  A
C962        C963   1.390       .  A
C962        H971   1.083       .  S
C963       C1372   1.405       .  A
C963        S967   1.806       .  S
C964       C1371   1.405   1_545  A
C964        C965   1.402       .  A
C965        C966   1.403       .  A
C965        H972   1.084       .  S
C966        S968   1.806       .  S
S967        H970   1.407       .  S
S968        H969   1.390       .  S
C973        C974   1.405   1_455  A
C974        C975   1.396       .  A
C974        H983   1.084       .  S
C975        C976   1.412       .  A
C975        S979   1.802       .  S
C977        C978   1.405       .  A
C977        H984   1.084       .  S
C978        S980   1.799       .  S
S979        H982   1.403       .  S
S980        H981   1.403       .  S
C985        C990   1.418   1_455  A
C986        C987   1.395       .  A
C986        H995   1.083       .  S
C987        S991   1.809       .  S
C988        C989   1.404   1_455  A
C989        C990   1.403       .  A
C989        H996   1.084       .  S
C990        S992   1.804       .  S
S991        H994   1.398       .  S
S992        H993   1.404       .  S
C997        C998   1.398   1_455  A
C998        C999   1.399       .  A
C998       H1007   1.083       .  S
C999       C1000   1.419       .  A
C999       S1003   1.808       .  S
C1001      C1002   1.406       .  A
C1001      H1008   1.083       .  S
C1002      S1004   1.804       .  S
S1003      H1006   1.406       .  S
S1004      H1005   1.407       .  S
C1009      C1010   1.409   1_455  A
C1010      C1011   1.403       .  A
C1010      H1019   1.083       .  S
C1011      C1012   1.413       .  A
C1011      S1015   1.804       .  S
C1013      C1014   1.393       .  A
C1013      H1020   1.085       .  S
C1014      S1016   1.803       .  S
S1015      H1018   1.407       .  S
S1016      H1017   1.400       .  S
C1021      C1204   1.509   1_455  S
C1021      C1213   1.500       .  S
O1023      C1034   1.293       .  A
O1024      C1035   1.294       .  A
O1024     Zr1058   2.445       .  S
O1025      C1036   1.291   1_565  A
O1025     Zr1031   2.432       .  S
O1026      C1037   1.290       .  A
O1027      C1037   1.291       .  A
O1027     Zr1061   2.435   1_545  S
O1028      C1036   1.289       .  A
O1028     Zr1060   2.431   1_545  S
O1029      C1035   1.291       .  A
O1029     Zr1439   2.439   1_455  S
O1030      C1034   1.290       .  A
O1030     Zr1031   2.433   1_545  S
Zr1031     O1437   2.439   1_655  S
Zr1031     O1033   2.337   1_565  S
Zr1031     O1447   2.339       .  S
O1032     Zr1469   2.342       .  S
O1033     Zr1060   2.340   1_545  S
C1034      C1216   1.473       .  S
C1035      C1201   1.479       .  S
C1036      C1168   1.467       .  S
C1037      C1153   1.466       .  S
H1038      O1039   0.966       .  S
O1039     Zr1439   2.339       .  S
O1039     Zr1058   2.338   1_655  S
O1039     Zr1468   2.342       .  S
H1040      O1041   0.965       .  S
O1041     Zr1061   2.338   1_545  S
O1042      C1065   1.292       .  A
O1043      C1066   1.293       .  A
O1043     Zr1059   2.440       .  S
O1044      C1067   1.292       .  A
O1044     Zr1468   2.440       .  S
O1045      C1068   1.290       .  A
O1045     Zr1469   2.434       .  S
O1046      C1069   1.290   1_554  A
O1047      C1070   1.290       .  A
O1048      C1071   1.290       .  A
O1048     Zr1062   2.429   1_655  S
O1049      C1072   1.291       .  A
O1050      C1071   1.290       .  A
O1050     Zr1264   2.433       .  S
O1051      C1072   1.291       .  A
O1051     Zr1265   2.434       .  S
O1052      C1067   1.292       .  A
O1052     Zr1058   2.437   1_655  S
O1053      C1070   1.293       .  A
O1053     Zr1059   2.440       .  S
O1054      C1069   1.294       .  A
O1055      C1068   1.293       .  A
O1056      C1065   1.293       .  A
O1056     Zr1062   2.444       .  S
O1057      C1066   1.294   1_455  A
O1057     Zr1470   2.451   1_545  S
Zr1059     O1074   2.338       .  S
Zr1060     O1452   2.440       .  S
Zr1060     O1254   2.433       .  S
Zr1060     O1447   2.342       .  S
Zr1060     O1268   2.340       .  S
Zr1061     O1453   2.434       .  S
Zr1061     O1255   2.434       .  S
Zr1061     O1440   2.342       .  S
Zr1061     O1280   2.338       .  S
Zr1062     O1465   2.451       .  S
Zr1062     O1064   2.344   1_455  S
Zr1062     O1482   2.339   1_455  S
O1064     Zr1264   2.340       .  S
C1065      C1192   1.473       .  S
C1066      C1180   1.480       .  S
C1067      C1081   1.473       .  S
C1068      C1105   1.472       .  S
C1069      C1117   1.474   1_556  S
C1070      C1096   1.468   1_556  S
C1071      C1132   1.463       .  S
C1072      C1141   1.467       .  S
H1073      O1074   0.965       .  S
O1074     Zr1470   2.339   1_645  S
H1075      O1076   0.965       .  S
O1076     Zr1265   2.338       .  S
C1077      C1537   1.494       .  S
C1077      C1165   1.498       .  S
C1077      C1078   1.369       .  D
C1078      C1552   1.497       .  S
C1078      C1156   1.490       .  S
C1079      C1120   1.500       .  S
C1079      C1080   1.369       .  D
C1080      C1093   1.493       .  S
C1081      C1082   1.404       .  A
C1082      C1083   1.406       .  A
C1082      H1091   1.083       .  S
C1083      C1084   1.417       .  A
C1083      S1087   1.806       .  S
C1085      C1086   1.395       .  A
C1085      H1092   1.084       .  S
C1086      S1088   1.808       .  S
S1087      H1090   1.407       .  S
S1088      H1089   1.403       .  S
C1093      C1094   1.405   1_554  A
C1094      C1095   1.402       .  A
C1094      H1103   1.083       .  S
C1095      C1096   1.416   1_556  A
C1095      S1099   1.809       .  S
C1097      C1098   1.393       .  A
C1097      H1104   1.085       .  S
C1098      S1100   1.798       .  S
S1099      H1102   1.399       .  S
S1100      H1101   1.404       .  S
C1105      C1106   1.398       .  A
C1106      C1107   1.391       .  A
C1106      H1115   1.085       .  S
C1107      C1108   1.415       .  A
C1107      S1111   1.800       .  S
C1109      C1110   1.402       .  A
C1109      H1116   1.083       .  S
C1110      S1112   1.804       .  S
S1111      H1114   1.403       .  S
S1112      H1113   1.401       .  S
C1117      C1118   1.400   1_554  A
C1118      C1119   1.397       .  A
C1118      H1127   1.084       .  S
C1119      C1120   1.416   1_556  A
C1119      S1123   1.802       .  S
C1121      C1122   1.400       .  A
C1121      H1128   1.083       .  S
C1122      S1124   1.803       .  S
S1123      H1126   1.407       .  S
S1124      H1125   1.401       .  S
C1129      C1485   1.494       .  S
C1129      C1130   1.408       .  A
C1129      C1542   1.417       .  A
C1130      C1131   1.398       .  A
C1130      H1139   1.083       .  S
C1131      C1132   1.408       .  A
C1131      S1135   1.802       .  S
C1132      C1541   1.397       .  A
C1133      C1540   1.397       .  A
C1133      C1134   1.392       .  A
C1133      H1140   1.085       .  S
C1134      C1537   1.417       .  A
C1134      S1136   1.801       .  S
S1135      H1138   1.406       .  S
S1136      H1137   1.394       .  S
C1141      C1550   1.401       .  A
C1141      C1146   1.411       .  A
C1142      C1549   1.401   1_545  A
C1142      C1143   1.398       .  A
C1142      H1151   1.085       .  S
C1143      C1552   1.417       .  A
C1143      S1147   1.796       .  S
C1144      C1486   1.497       .  S
C1144      C1551   1.417       .  A
C1144      C1145   1.405       .  A
C1145      C1146   1.394       .  A
C1145      H1152   1.083       .  S
C1146      S1148   1.806       .  S
S1147      H1150   1.400       .  S
S1148      H1149   1.397       .  S
C1153      C1562   1.402   1_545  A
C1153      C1158   1.412       .  A
C1154      C1561   1.402       .  A
C1154      C1155   1.400       .  A
C1154      H1163   1.084       .  S
C1155      C1564   1.418       .  A
C1155      S1159   1.805       .  S
C1156      C1563   1.418   1_545  A
C1156      C1157   1.403       .  A
C1157      C1158   1.390       .  A
C1157      H1164   1.083       .  S
C1158      S1160   1.807       .  S
S1159      H1162   1.403       .  S
S1160      H1161   1.399       .  S
C1165      C1574   1.409   1_545  A
C1165      C1170   1.422       .  A
C1166      C1573   1.409       .  A
C1166      C1167   1.390       .  A
C1166      H1175   1.083       .  S
C1167      C1576   1.405       .  A
C1167      S1171   1.806       .  S
C1168      C1575   1.405   1_545  A
C1168      C1169   1.402       .  A
C1169      C1170   1.403       .  A
C1169      H1176   1.084       .  S
C1170      S1172   1.806       .  S
S1171      H1174   1.407       .  S
S1172      H1173   1.390       .  S
C1177      C1178   1.405   1_455  A
C1178      C1179   1.396       .  A
C1178      H1187   1.084       .  S
C1179      C1180   1.412       .  A
C1179      S1183   1.802       .  S
C1181      C1182   1.405       .  A
C1181      H1188   1.084       .  S
C1182      S1184   1.799       .  S
S1183      H1186   1.403       .  S
S1184      H1185   1.403       .  S
C1189      C1194   1.418   1_455  A
C1190      C1191   1.395       .  A
C1190      H1199   1.083       .  S
C1191      S1195   1.809       .  S
C1192      C1193   1.404   1_455  A
C1193      C1194   1.403       .  A
C1193      H1200   1.084       .  S
C1194      S1196   1.804       .  S
S1195      H1198   1.398       .  S
S1196      H1197   1.404       .  S
C1201      C1202   1.398   1_455  A
C1202      C1203   1.399       .  A
C1202      H1211   1.083       .  S
C1203      C1204   1.419       .  A
C1203      S1207   1.808       .  S
C1205      C1206   1.406       .  A
C1205      H1212   1.083       .  S
C1206      S1208   1.804       .  S
S1207      H1210   1.406       .  S
S1208      H1209   1.407       .  S
C1213      C1214   1.409   1_455  A
C1214      C1215   1.403       .  A
C1214      H1223   1.083       .  S
C1215      C1216   1.413       .  A
C1215      S1219   1.804       .  S
C1217      C1218   1.393       .  A
C1217      H1224   1.085       .  S
C1218      S1220   1.803       .  S
S1219      H1222   1.407       .  S
S1220      H1221   1.400       .  S
C1225      C1408   1.509   1_455  S
C1225      C1417   1.500       .  S
O1227      C1238   1.293       .  A
O1227     Zr1467   2.441   1_554  S
O1228      C1239   1.294       .  A
O1228     Zr1262   2.445   1_554  S
O1229      C1240   1.291       .  A
O1229     Zr1235   2.432       .  S
O1230      C1241   1.290       .  A
O1231      C1241   1.291       .  A
O1231     Zr1265   2.435   1_554  S
O1232      C1240   1.289       .  A
O1232     Zr1264   2.431   1_554  S
O1233      C1239   1.291       .  A
O1234      C1238   1.290       .  A
O1234     Zr1235   2.433       .  S
Zr1235     O1237   2.337       .  S
O1237     Zr1467   2.339   1_554  S
O1237     Zr1264   2.340   1_554  S
C1238      C1420   1.473       .  S
C1239      C1405   1.479       .  S
C1240      C1372   1.467       .  S
C1241      C1357   1.466       .  S
H1242      O1243   0.966       .  S
O1243     Zr1262   2.338   1_654  S
H1244      O1245   0.965       .  S
O1245     Zr1265   2.338   1_554  S
O1246      C1269   1.292       .  A
O1246     Zr1466   2.437       .  S
O1247      C1270   1.293       .  A
O1247     Zr1263   2.440       .  S
O1248      C1271   1.292       .  A
O1249      C1272   1.290       .  A
O1250      C1273   1.290       .  A
O1250     Zr1469   2.432       .  S
O1251      C1274   1.290       .  A
O1251     Zr1468   2.433       .  S
O1252      C1275   1.290       .  A
O1252     Zr1266   2.429   1_655  S
O1253      C1276   1.291       .  A
O1254      C1275   1.290       .  A
O1255      C1276   1.291       .  A
O1256      C1271   1.292       .  A
O1256     Zr1262   2.437   1_655  S
O1257      C1274   1.293       .  A
O1257     Zr1263   2.440       .  S
O1258      C1273   1.294       .  A
O1259      C1272   1.293       .  A
O1260      C1269   1.293       .  A
O1260     Zr1266   2.444       .  S
O1261      C1270   1.294   1_455  A
Zr1262     O1450   2.437       .  S
Zr1262     O1472   2.342   1_455  S
Zr1263     O1431   2.441       .  S
Zr1263     O1441   2.339       .  S
Zr1263     O1278   2.338       .  S
Zr1264     O1455   2.433       .  S
Zr1264     O1482   2.343       .  S
Zr1265     O1454   2.432   1_556  S
Zr1265     O1471   2.342       .  S
Zr1266     O1268   2.344   1_455  S
O1267     Zr1469   2.342       .  S
O1268     Zr1466   2.342   1_655  S
C1269      C1396   1.473       .  S
C1270      C1384   1.480       .  S
C1271      C1285   1.473       .  S
C1272      C1309   1.472       .  S
C1273      C1321   1.474       .  S
C1274      C1300   1.468       .  S
C1275      C1336   1.463   1_565  S
C1276      C1345   1.467       .  S
H1277      O1278   0.965       .  S
O1278     Zr1468   2.343       .  S
H1279      O1280   0.965       .  S
C1281      C1369   1.498       .  S
C1281      C1282   1.369       .  D
C1282      C1360   1.490       .  S
C1283      C1516   1.495       .  S
C1283      C1324   1.500       .  S
C1283      C1284   1.369       .  D
C1284      C1492   1.499       .  S
C1284      C1297   1.493       .  S
C1285      C1286   1.404   1_556  A
C1285      C1494   1.410       .  A
C1286      C1287   1.406       .  A
C1286      H1295   1.083       .  S
C1287      C1288   1.417       .  A
C1287      S1291   1.806       .  S
C1288      C1488   1.499       .  S
C1288      C1493   1.407   1_554  A
C1289      C1492   1.407       .  A
C1289      C1290   1.395       .  A
C1289      H1296   1.084       .  S
C1290      C1489   1.410       .  A
C1290      S1292   1.808       .  S
S1291      H1294   1.407       .  S
S1292      H1293   1.403       .  S
C1297      C1298   1.405       .  A
C1297      C1506   1.411       .  A
C1298      C1299   1.402       .  A
C1298      H1307   1.083       .  S
C1299      C1300   1.416       .  A
C1299      S1303   1.809       .  S
C1300      C1505   1.400       .  A
C1301      C1504   1.400       .  A
C1301      C1302   1.393       .  A
C1301      H1308   1.085       .  S
C1302      C1501   1.411       .  A
C1302      S1304   1.798       .  S
S1303      H1306   1.399       .  S
S1304      H1305   1.404       .  S
C1309      C1310   1.398       .  A
C1309      C1518   1.415   1_554  A
C1310      C1311   1.391       .  A
C1310      H1319   1.085       .  S
C1311      C1312   1.415       .  A
C1311      S1315   1.800       .  S
C1312      C1487   1.495       .  S
C1312      C1517   1.407   1_554  A
C1313      C1516   1.407       .  A
C1313      C1314   1.402       .  A
C1313      H1320   1.083       .  S
C1314      C1513   1.415       .  A
C1314      S1316   1.804       .  S
S1315      H1318   1.403       .  S
S1316      H1317   1.401       .  S
C1321      C1322   1.400       .  A
C1321      C1530   1.415       .  A
C1322      C1323   1.397       .  A
C1322      H1331   1.084       .  S
C1323      C1324   1.416       .  A
C1323      S1327   1.802       .  S
C1324      C1529   1.406       .  A
C1325      C1528   1.406       .  A
C1325      C1326   1.400       .  A
C1325      H1332   1.083       .  S
C1326      C1525   1.415       .  A
C1326      S1328   1.803       .  S
S1327      H1330   1.407       .  S
S1328      H1329   1.401       .  S
C1333      C1334   1.408   1_545  A
C1334      C1335   1.398       .  A
C1334      H1343   1.083       .  S
C1335      C1336   1.408   1_565  A
C1335      S1339   1.802       .  S
C1337      C1338   1.392       .  A
C1337      H1344   1.085       .  S
C1338      S1340   1.801       .  S
S1339      H1342   1.406       .  S
S1340      H1341   1.394       .  S
C1345      C1350   1.411       .  A
C1346      C1347   1.398       .  A
C1346      H1355   1.085       .  S
C1347      S1351   1.796       .  S
C1348      C1349   1.405   1_545  A
C1349      C1350   1.394       .  A
C1349      H1356   1.083       .  S
C1350      S1352   1.806       .  S
S1351      H1354   1.400       .  S
S1352      H1353   1.397       .  S
C1357      C1362   1.412       .  A
C1358      C1359   1.400       .  A
C1358      H1367   1.084       .  S
C1359      S1363   1.805       .  S
C1360      C1361   1.403       .  A
C1361      C1362   1.390       .  A
C1361      H1368   1.083       .  S
C1362      S1364   1.807       .  S
S1363      H1366   1.403       .  S
S1364      H1365   1.399       .  S
C1369      C1374   1.422       .  A
C1370      C1371   1.390       .  A
C1370      H1379   1.083       .  S
C1371      S1375   1.806       .  S
C1372      C1373   1.402       .  A
C1373      C1374   1.403       .  A
C1373      H1380   1.084       .  S
C1374      S1376   1.806       .  S
S1375      H1378   1.407       .  S
S1376      H1377   1.390       .  S
C1381      C1382   1.405   1_455  A
C1382      C1383   1.396       .  A
C1382      H1391   1.084       .  S
C1383      C1384   1.412       .  A
C1383      S1387   1.802       .  S
C1385      C1386   1.405       .  A
C1385      H1392   1.084       .  S
C1386      S1388   1.799       .  S
S1387      H1390   1.403       .  S
S1388      H1389   1.403       .  S
C1393      C1398   1.418   1_455  A
C1394      C1395   1.395       .  A
C1394      H1403   1.083       .  S
C1395      S1399   1.809       .  S
C1396      C1397   1.404   1_455  A
C1397      C1398   1.403       .  A
C1397      H1404   1.084       .  S
C1398      S1400   1.804       .  S
S1399      H1402   1.398       .  S
S1400      H1401   1.404       .  S
C1405      C1406   1.398   1_455  A
C1406      C1407   1.399       .  A
C1406      H1415   1.083       .  S
C1407      C1408   1.419       .  A
C1407      S1411   1.808       .  S
C1409      C1410   1.406       .  A
C1409      H1416   1.083       .  S
C1410      S1412   1.804       .  S
S1411      H1414   1.406       .  S
S1412      H1413   1.407       .  S
C1417      C1418   1.409   1_455  A
C1418      C1419   1.403       .  A
C1418      H1427   1.083       .  S
C1419      C1420   1.413       .  A
C1419      S1423   1.804       .  S
C1421      C1422   1.393       .  A
C1421      H1428   1.085       .  S
C1422      S1424   1.803       .  S
S1423      H1426   1.407       .  S
S1424      H1425   1.400       .  S
C1429      C1612   1.509   1_455  S
C1429      C1621   1.500       .  S
O1431      C1442   1.293       .  A
O1432      C1443   1.294       .  A
O1432     Zr1466   2.445       .  S
O1433      C1444   1.291       .  A
O1433     Zr1439   2.432       .  S
O1434      C1445   1.290       .  A
O1435      C1445   1.291       .  A
O1435     Zr1469   2.435       .  S
O1436      C1444   1.289       .  A
O1436     Zr1468   2.431       .  S
O1437      C1443   1.291       .  A
O1438      C1442   1.290       .  A
O1438     Zr1439   2.433       .  S
Zr1439     O1441   2.337       .  S
O1441     Zr1468   2.340       .  S
C1442      C1624   1.473       .  S
C1443      C1609   1.479       .  S
C1444      C1576   1.467       .  S
C1445      C1561   1.466       .  S
H1446      O1447   0.966       .  S
O1447     Zr1466   2.338   1_655  S
H1448      O1449   0.965       .  S
O1449     Zr1469   2.338       .  S
O1450      C1473   1.292       .  A
O1451      C1474   1.293       .  A
O1451     Zr1467   2.440       .  S
O1452      C1475   1.292       .  A
O1453      C1476   1.290       .  A
O1454      C1477   1.290   1_554  A
O1455      C1478   1.290       .  A
O1456      C1479   1.290       .  A
O1456     Zr1470   2.429   1_655  S
O1457      C1480   1.291       .  A
O1458      C1479   1.290       .  A
O1459      C1480   1.291       .  A
O1460      C1475   1.292       .  A
O1460     Zr1466   2.437   1_655  S
O1461      C1478   1.293       .  A
O1461     Zr1467   2.440       .  S
O1462      C1477   1.294       .  A
O1463      C1476   1.293       .  A
O1464      C1473   1.293       .  A
O1464     Zr1470   2.444       .  S
O1465      C1474   1.294   1_455  A
Zr1467     O1482   2.338       .  S
Zr1470     O1472   2.344   1_455  S
C1473      C1600   1.473       .  S
C1474      C1588   1.480       .  S
C1475      C1489   1.473       .  S
C1476      C1513   1.472       .  S
C1477      C1525   1.474   1_556  S
C1478      C1504   1.468   1_556  S
C1479      C1540   1.463   1_565  S
C1480      C1549   1.467       .  S
H1481      O1482   0.965       .  S
H1483      O1484   0.965       .  S
C1485      C1573   1.498       .  S
C1485      C1486   1.369       .  D
C1486      C1564   1.490       .  S
C1487      C1528   1.500       .  S
C1487      C1488   1.369       .  D
C1488      C1501   1.493       .  S
C1489      C1490   1.404       .  A
C1490      C1491   1.406       .  A
C1490      H1499   1.083       .  S
C1491      C1492   1.417       .  A
C1491      S1495   1.806       .  S
C1493      C1494   1.395       .  A
C1493      H1500   1.084       .  S
C1494      S1496   1.808       .  S
S1495      H1498   1.407       .  S
S1496      H1497   1.403       .  S
C1501      C1502   1.405   1_554  A
C1502      C1503   1.402       .  A
C1502      H1511   1.083       .  S
C1503      C1504   1.416   1_556  A
C1503      S1507   1.809       .  S
C1505      C1506   1.393       .  A
C1505      H1512   1.085       .  S
C1506      S1508   1.798       .  S
S1507      H1510   1.399       .  S
S1508      H1509   1.404       .  S
C1513      C1514   1.398       .  A
C1514      C1515   1.391       .  A
C1514      H1523   1.085       .  S
C1515      C1516   1.415       .  A
C1515      S1519   1.800       .  S
C1517      C1518   1.402       .  A
C1517      H1524   1.083       .  S
C1518      S1520   1.804       .  S
S1519      H1522   1.403       .  S
S1520      H1521   1.401       .  S
C1525      C1526   1.400   1_554  A
C1526      C1527   1.397       .  A
C1526      H1535   1.084       .  S
C1527      C1528   1.416   1_556  A
C1527      S1531   1.802       .  S
C1529      C1530   1.400       .  A
C1529      H1536   1.083       .  S
C1530      S1532   1.803       .  S
S1531      H1534   1.407       .  S
S1532      H1533   1.401       .  S
C1537      C1538   1.408   1_545  A
C1538      C1539   1.398       .  A
C1538      H1547   1.083       .  S
C1539      C1540   1.408   1_565  A
C1539      S1543   1.802       .  S
C1541      C1542   1.392       .  A
C1541      H1548   1.085       .  S
C1542      S1544   1.801       .  S
S1543      H1546   1.406       .  S
S1544      H1545   1.394       .  S
C1549      C1554   1.411       .  A
C1550      C1551   1.398       .  A
C1550      H1559   1.085       .  S
C1551      S1555   1.796       .  S
C1552      C1553   1.405   1_545  A
C1553      C1554   1.394       .  A
C1553      H1560   1.083       .  S
C1554      S1556   1.806       .  S
S1555      H1558   1.400       .  S
S1556      H1557   1.397       .  S
C1561      C1566   1.412       .  A
C1562      C1563   1.400       .  A
C1562      H1571   1.084       .  S
C1563      S1567   1.805       .  S
C1564      C1565   1.403       .  A
C1565      C1566   1.390       .  A
C1565      H1572   1.083       .  S
C1566      S1568   1.807       .  S
S1567      H1570   1.403       .  S
S1568      H1569   1.399       .  S
C1573      C1578   1.422       .  A
C1574      C1575   1.390       .  A
C1574      H1583   1.083       .  S
C1575      S1579   1.806       .  S
C1576      C1577   1.402       .  A
C1577      C1578   1.403       .  A
C1577      H1584   1.084       .  S
C1578      S1580   1.806       .  S
S1579      H1582   1.407       .  S
S1580      H1581   1.390       .  S
C1585      C1586   1.405   1_455  A
C1586      C1587   1.396       .  A
C1586      H1595   1.084       .  S
C1587      C1588   1.412       .  A
C1587      S1591   1.802       .  S
C1589      C1590   1.405       .  A
C1589      H1596   1.084       .  S
C1590      S1592   1.799       .  S
S1591      H1594   1.403       .  S
S1592      H1593   1.403       .  S
C1597      C1602   1.418   1_455  A
C1598      C1599   1.395       .  A
C1598      H1607   1.083       .  S
C1599      S1603   1.809       .  S
C1600      C1601   1.404   1_455  A
C1601      C1602   1.403       .  A
C1601      H1608   1.084       .  S
C1602      S1604   1.804       .  S
S1603      H1606   1.398       .  S
S1604      H1605   1.404       .  S
C1609      C1610   1.398   1_455  A
C1610      C1611   1.399       .  A
C1610      H1619   1.083       .  S
C1611      C1612   1.419       .  A
C1611      S1615   1.808       .  S
C1613      C1614   1.406       .  A
C1613      H1620   1.083       .  S
C1614      S1616   1.804       .  S
S1615      H1618   1.406       .  S
S1616      H1617   1.407       .  S
C1621      C1622   1.409   1_455  A
C1622      C1623   1.403       .  A
C1622      H1631   1.083       .  S
C1623      C1624   1.413       .  A
C1623      S1627   1.804       .  S
C1625      C1626   1.393       .  A
C1625      H1632   1.085       .  S
C1626      S1628   1.803       .  S
S1627      H1630   1.407       .  S
S1628      H1629   1.400       .  S
