geometry optimzed in LAMMPS
_audit_creation_date              2020-11-30 
_audit_creation_method            'lammps2cif' 
_symmetry_space_group_name_H-M    'P1' 
_symmetry_Int_Tables_number       1 
_symmetry_cell_setting            triclinic 
loop_ 
_symmetry_equiv_pos_as_xyz 
  x,y,z 
_cell_length_a                    36.18828014687706 
_cell_length_b                    36.164216229432 
_cell_length_c                    30.748972492296335 
_cell_angle_alpha                 89.62772489456349 
_cell_angle_beta                  91.21074775274836 
_cell_angle_gamma                 91.11407174711546 
loop_ 
_atom_site_label 
_atom_site_type_symbol 
_atom_site_fract_x 
_atom_site_fract_y 
_atom_site_fract_z 
_atom_site_charge 
O1          O  0.41575373  0.45270408  0.47411785    -0.80060
O2          O  0.05805812  0.00392635  0.43297659    -0.80090
O3          O  0.46760638  0.07595254  0.47744402    -0.80100
O4          O  0.02763927  0.41877375  0.47786913    -0.80040
O5          O  0.00431797  0.05251829  0.43187169    -0.80160
O6          O  0.48374989  0.44612505  0.43905719    -0.80080
O7          O  0.08564666  0.46805981  0.48060584    -0.80060
O8          O  0.43350731  0.00924081  0.45558830    -0.80100
C9          C  0.41065976  0.48145536  0.45142755     1.09630
C10         C  0.08455229  0.98386597  0.44362705     1.09510
C11         C  0.48380665  0.07858837  0.44150847     1.09650
C12         C  0.00621143  0.41982465  0.44433487     1.09530
O13         O  0.46784985  0.41955354  0.52272322    -0.80070
O14         O  0.02887404  0.07908633  0.51867638    -0.80140
O15         O  0.41878481  0.04260388  0.53128623    -0.80080
O16         O  0.06252077  0.49320093  0.56474483    -0.80060
O17         O  0.08618594  0.03141005  0.51667599    -0.80110
O18         O  0.43721773  0.48606603  0.54780934    -0.80080
O19         O  0.00970050  0.44047332  0.56756417    -0.80030
O20         O  0.48989014  0.04973416  0.56123196    -0.80100
Co21       Co  0.46304270  0.46870281  0.49166882     1.51530
Co22       Co  0.04232706  0.03930352  0.47560902     1.51690
Co23       Co  0.46423505  0.02710313  0.51022481     1.51570
Co24       Co  0.04405380  0.45760794  0.52209840     1.51470
O25         O  0.51005522  0.49808191  0.49992029    -1.42000
C26         C  0.98666020  0.41549700  0.55735955     1.09550
C27         C  0.51080654  0.07754365  0.55392121     1.09640
C28         C  0.41472549  0.51301689  0.55308480     1.09580
C29         C  0.08730557  0.01615882  0.55414285     1.09550
C30         C  0.49168765  0.21783011  0.34352054     0.03200
C31         C  0.49739087  0.25175234  0.36538268    -0.12950
C32         C  0.50357412  0.28490030  0.34210933     0.00700
C33         C  0.50530652  0.28395338  0.29652626    -0.11470
C34         C  0.50004835  0.25043946  0.27414836     0.03190
C35         C  0.49273718  0.21780256  0.29764630    -0.10890
H36         H  0.49745895  0.25255819  0.40056455     0.08790
H37         H  0.50993475  0.30938640  0.27843129     0.06320
H38         H  0.48801566  0.19226163  0.27996735     0.06160
C39         C  0.27976335  0.48494903  0.34184954     0.03200
C40         C  0.28044881  0.48750196  0.29634267    -0.12950
C41         C  0.24732481  0.49024448  0.27231548     0.00700
C42         C  0.21343317  0.48920069  0.29334436    -0.11470
C43         C  0.21281316  0.48605201  0.33852109     0.03190
C44         C  0.24576722  0.98541194  0.36268655    -0.10890
H45         H  0.30653729  0.48760944  0.27965626     0.08790
H46         H  0.18775069  0.49080024  0.27467280     0.06320
H47         H  0.24474110  0.98512661  0.39788947     0.06160
C48         C  0.28682721  0.50700949  0.65900618     0.03200
C49         C  0.25305914  0.01199412  0.63709424    -0.12950
C50         C  0.22034122  0.51410200  0.66047929     0.00700
C51         C  0.22203305  0.51169973  0.70606664    -0.11470
C52         C  0.25582482  0.50556829  0.72756193     0.03190
C53         C  0.28820135  0.50328516  0.70409658    -0.10890
H54         H  0.25236163  0.01419760  0.60191336     0.08790
H55         H  0.19720975  0.51442498  0.72480894     0.06320
H56         H  0.31451545  0.49958551  0.72095823     0.06160
C57         C  0.49415178  0.21054196  0.65879423     0.03200
C58         C  0.49423255  0.21121531  0.70459880    -0.12950
C59         C  0.48996737  0.24458111  0.72698735     0.00700
C60         C  0.48626209  0.27779480  0.70343197    -0.11470
C61         C  0.48604177  0.27794549  0.65762052     0.03190
C62         C  0.48993175  0.24409535  0.63576020    -0.10890
H63         H  0.49845125  0.18592742  0.72298079     0.08790
H64         H  0.48457021  0.30359652  0.72091856     0.06320
H65         H  0.48977388  0.24388123  0.60052229     0.06160
C66         C  0.25031225  0.46922335  0.15319795     0.03200
C67         C  0.25273497  0.46468153  0.19831319    -0.12950
C68         C  0.24794108  0.49514069  0.22525589     0.00700
C69         C  0.24089723  0.02996958  0.20719325    -0.11470
C70         C  0.23980997  0.03469002  0.16198470     0.03190
C71         C  0.24505015  0.50426812  0.13518802    -0.10890
H72         H  0.25622028  0.43735937  0.21235576     0.08790
H73         H  0.23578242  0.05312992  0.22830182     0.06320
H74         H  0.24351895  0.50748550  0.10010632     0.06160
O75         O  0.26380259  0.31899495  0.03753602    -0.80060
O76         O  0.21390536  0.16585165  0.02280783    -0.80090
O77         O  0.19753577  0.26613854  0.06196414    -0.80100
O78         O  0.30341435  0.24614008  0.06991772    -0.80040
O79         O  0.16738965  0.22372891  0.02286641    -0.80160
O80         O  0.32653765  0.28146897  0.02016263    -0.80080
O81         O  0.25070771  0.19291291  0.07062786    -0.80020
O82         O  0.20594305  0.33514125  0.02488441    -0.80100
C83         C  0.23733836  0.34211212  0.04224174     1.09630
C84         C  0.22845077  0.16708607  0.06075868     1.09510
C85         C  0.17006066  0.24398275  0.05687968     1.09650
C86         C  0.32948557  0.26661713  0.05737674     1.09530
O87         O  0.29924134  0.25665578  0.93782390    -0.80070
O88         O  0.19150984  0.24277958  0.93358456    -0.80140
O89         O  0.23652325  0.31338274  0.95131385    -0.80080
O90         O  0.27668928  0.16385513  0.98873077    -0.80060
O91         O  0.24051298  0.18830925  0.93844285    -0.80110
O92         O  0.29601301  0.32894683  0.96030404    -0.80080
O93         O  0.32767998  0.21950248  0.98430602    -0.80030
O94         O  0.17031234  0.28257514  0.97753662    -0.80100
Co95       Co  0.27834880  0.28504250  0.98595437     1.51530
Co96       Co  0.20577205  0.20732692  0.97972333     1.51690
Co97       Co  0.21986237  0.28752092  0.00887492     1.51570
Co98       Co  0.28719304  0.20772734  0.02789039     1.51470
O99         O  0.24755078  0.24067284  0.00173632    -1.42000
C100        C  0.32643603  0.23641564  0.94767787     1.09550
C101        C  0.16625230  0.26455090  0.94268005     1.09640
C102        C  0.26491464  0.33396654  0.94176526     1.09580
C103        C  0.26208144  0.16329041  0.95070936     1.09550
C104        C  0.03666341  0.24762754  0.15950878     0.03200
C105        C  0.03533318  0.24724751  0.20510108    -0.12950
C106        C  0.50134368  0.24962247  0.22600657     0.00700
C107        C  0.46845564  0.25134938  0.20098987    -0.11470
C108        C  0.46903361  0.25325905  0.15504464     0.03190
C109        C  0.50382554  0.25232673  0.13496679    -0.10890
H110        H  0.06068787  0.24507443  0.22427104     0.08790
H111        H  0.44247014  0.25144613  0.21778164     0.06320
H112        H  0.50594222  0.25607475  0.10020863     0.06160
C113        C  0.25939295  0.46671203  0.84105694     0.03200
C114        C  0.26423950  0.49918640  0.86529840    -0.12950
C115        C  0.26498617  0.03356237  0.84434054     0.00700
C116        C  0.26208032  0.03550613  0.79901481    -0.11470
C117        C  0.25788555  0.50317586  0.77480309     0.03190
C118        C  0.25663550  0.46873809  0.79563675    -0.10890
H119        H  0.26648914  0.49778617  0.90047989     0.08790
H120        H  0.26271406  0.06216620  0.78265032     0.06320
H121        H  0.25321835  0.44371084  0.77662392     0.06160
C122        C  0.02698405  0.25128021  0.84329439     0.03200
C123        C  0.49404663  0.24634888  0.86648775    -0.12950
C124        C  0.45980728  0.24039427  0.84463366     0.00700
C125        C  0.45873181  0.23942184  0.79887086    -0.11470
C126        C  0.49120282  0.24496744  0.77518601     0.03190
C127        C  0.02499165  0.25127393  0.79747968    -0.10890
H128        H  0.49502196  0.24677260  0.90172539     0.08790
H129        H  0.43253374  0.23536667  0.78165745     0.06320
H130        H  0.04977308  0.25622972  0.77897878     0.06160
C131        C  0.26549418  0.13106892  0.92214328    -0.00080
C132        C  0.23533984  0.12259141  0.89413324    -0.11960
C133        C  0.23498780  0.09115307  0.86841996     0.02150
C134        C  0.26544364  0.06759203  0.87003648    -0.00170
C135        C  0.29593965  0.07601767  0.89738348    -0.11900
C136        C  0.29627750  0.10769190  0.92336669     0.02040
H137        H  0.21119763  0.13993716  0.89328785     0.15020
H138        H  0.31944331  0.05784027  0.89832884     0.15020
C139        C  0.32869633  0.11597581  0.94994779     0.36670
C140        C  0.20225594  0.08272073  0.84227348     0.36580
N141        N  0.35476967  0.12271639  0.97108390    -0.43670
N142        N  0.17605236  0.07590444  0.82139358    -0.43670
C143        C  0.26053847  0.36450941  0.91100000    -0.00080
C144        C  0.23320636  0.39021360  0.91945027    -0.11960
C145        C  0.23167986  0.42335335  0.89618084     0.02150
C146        C  0.25758980  0.43068555  0.86341200    -0.00170
C147        C  0.28340707  0.40382800  0.85309090    -0.11900
C148        C  0.28521839  0.37086095  0.87687598     0.02040
H149        H  0.21417696  0.38520328  0.94575192     0.15020
H150        H  0.30298525  0.40920936  0.82748160     0.15020
C151        C  0.31220393  0.34389148  0.86545830     0.36670
C152        C  0.20370064  0.44953253  0.90701058     0.36580
N153        N  0.33363671  0.32222602  0.85585966    -0.43670
N154        N  0.18140947  0.47055311  0.91591135    -0.43670
C155        C  0.36537089  0.26651302  0.08160067    -0.00080
C156        C  0.39468484  0.24767286  0.06329817    -0.11960
C157        C  0.42776007  0.24170646  0.08678012     0.02150
C158        C  0.43350689  0.25746277  0.12871816    -0.00170
C159        C  0.40396799  0.27714363  0.14638138    -0.11900
C160        C  0.36981285  0.28031244  0.12411046     0.02040
H161        H  0.39087329  0.23549674  0.03133543     0.15020
H162        H  0.40712720  0.28985806  0.17804559     0.15020
C163        C  0.33957620  0.29731006  0.14583742     0.36670
C164        C  0.45354878  0.21667260  0.06802014     0.36580
N165        N  0.31528970  0.31070264  0.16342376    -0.43670
N166        N  0.47396335  0.19648782  0.05272691    -0.43670
C167        C  0.07258862  0.24482387  0.13706189    -0.00080
C168        C  0.09638183  0.27570486  0.13599906    -0.11960
C169        C  0.12907209  0.27547627  0.11219884     0.02150
C170        C  0.13860906  0.24383803  0.08805402    -0.00170
C171        C  0.11520633  0.21230992  0.09071701    -0.11900
C172        C  0.08274802  0.21248939  0.11520442     0.02040
H173        H  0.08889035  0.30052712  0.15310097     0.15020
H174        H  0.12206725  0.18748758  0.07325940     0.15020
C175        C  0.06049576  0.17904617  0.11800580     0.36670
C176        C  0.15117280  0.30890604  0.11248520     0.36580
N177        N  0.04284360  0.15213294  0.12067798    -0.43670
N178        N  0.16822732  0.33619001  0.11424413    -0.43670
C179        C  0.35971190  0.23742187  0.91998361    -0.00080
C180        C  0.36792449  0.20724735  0.89350789    -0.11960
C181        C  0.40012523  0.20754805  0.86833343     0.02150
C182        C  0.42497175  0.23825888  0.86987573    -0.00170
C183        C  0.41675156  0.26809570  0.89655773    -0.11900
C184        C  0.38471250  0.26803034  0.92129568     0.02040
H185        H  0.34926280  0.18341174  0.89259479     0.15020
H186        H  0.43558799  0.29181591  0.89799130     0.15020
C187        C  0.37907736  0.29980096  0.94831423     0.36670
C188        C  0.40780174  0.17558999  0.84242129     0.36580
N189        N  0.37597161  0.32588986  0.96942270    -0.43670
N190        N  0.41408180  0.14998978  0.82163534    -0.43670
C191        C  0.13128635  0.26482963  0.91549712    -0.00080
C192        C  0.12789430  0.24006781  0.88036380    -0.11960
C193        C  0.09459156  0.23533443  0.85670736     0.02150
C194        C  0.06339891  0.25627119  0.86702948    -0.00170
C195        C  0.06682445  0.28166560  0.90148019    -0.11900
C196        C  0.10010000  0.28601314  0.92570819     0.02040
H197        H  0.15105711  0.22306194  0.87212324     0.15020
H198        H  0.04322768  0.29805155  0.90977455     0.15020
C199        C  0.10092000  0.31181899  0.96136286     0.36670
C200        C  0.09270894  0.20696634  0.82382430     0.36580
N201        N  0.10149565  0.33242828  0.99002462    -0.43670
N202        N  0.09124034  0.18419979  0.79753009    -0.43670
C203        C  0.23222163  0.07089746  0.14186821    -0.00080
C204        C  0.20511380  0.07281626  0.10860982    -0.11960
C205        C  0.20133058  0.10470284  0.08318977     0.02150
C206        C  0.22469527  0.13571910  0.09157864    -0.00170
C207        C  0.24940047  0.13468414  0.12761174    -0.11900
C208        C  0.25382035  0.10252538  0.15216666     0.02040
H209        H  0.18792337  0.04863796  0.10121936     0.15020
H210        H  0.26746388  0.15821733  0.13494925     0.15020
C211        C  0.28306364  0.10183361  0.18490010     0.36670
C212        C  0.17443458  0.10393404  0.04781717     0.36580
N213        N  0.30655964  0.10127841  0.21100979    -0.43670
N214        N  0.15297854  0.10311923  0.01937190    -0.43670
C215        C  0.24758447  0.43701820  0.12466877    -0.00080
C216        C  0.27897443  0.41628891  0.11709002    -0.11960
C217        C  0.27703902  0.38617521  0.08874990     0.02150
C218        C  0.24260581  0.37555878  0.06929463    -0.00170
C219        C  0.21185319  0.39792288  0.07543342    -0.11900
C220        C  0.21395785  0.42812305  0.10310099     0.02040
H221        H  0.30519585  0.42435795  0.13234563     0.15020
H222        H  0.18564807  0.39157273  0.05912392     0.15020
C223        C  0.18101286  0.44925293  0.10943417     0.36670
C224        C  0.31127575  0.36904966  0.07784856     0.36580
N225        N  0.15472901  0.46629699  0.11449161    -0.43670
N226        N  0.33913734  0.35637737  0.06863437    -0.43670
C227        C  0.48561729  0.38021451  0.58245021    -0.00080
C228        C  0.45903472  0.37414901  0.61445748    -0.11960
C229        C  0.45835210  0.34120334  0.63925954     0.02150
C230        C  0.48476973  0.31351494  0.63226538    -0.00170
C231        C  0.01127491  0.31988466  0.60022682    -0.11900
C232        C  0.01204274  0.35266704  0.57568659     0.02040
H233        H  0.43894975  0.39528306  0.62036738     0.15020
H234        H  0.03205563  0.29928755  0.59477967     0.15020
C235        C  0.04080804  0.35716725  0.54417096     0.36670
C236        C  0.42969292  0.33619076  0.67080460     0.36580
N237        N  0.06437720  0.35975237  0.51940633    -0.43670
N238        N  0.40676239  0.33225384  0.69618745    -0.43670
C239        C  0.51025516  0.11041838  0.58368894    -0.00080
C240        C  0.48459413  0.11067577  0.61760261    -0.11960
C241        C  0.47914805  0.14249909  0.64260518     0.02150
C242        C  0.49996150  0.17525702  0.63460251    -0.00170
C243        C  0.02636957  0.17477527  0.60175210    -0.11900
C244        C  0.03162236  0.14316428  0.57641086     0.02040
H245        H  0.46744938  0.08631837  0.62364577     0.15020
H246        H  0.04284330  0.19955805  0.59545362     0.15020
C247        C  0.05852521  0.14595263  0.54246927     0.36670
C248        C  0.45033794  0.14137382  0.67440071     0.36580
N249        N  0.07992845  0.14850477  0.51511982    -0.43670
N250        N  0.42723356  0.14049395  0.69986642    -0.43670
C251        C  0.50512678  0.38762786  0.41407367    -0.00080
C252        C  0.03844212  0.37279810  0.39982015    -0.11960
C253        C  0.03864579  0.33999434  0.37528101     0.02150
C254        C  0.50516927  0.32088363  0.36544664    -0.00170
C255        C  0.47202491  0.33570920  0.37926166    -0.11900
C256        C  0.47161332  0.36860005  0.40314857     0.02040
H257        H  0.06442706  0.38664366  0.40833727     0.15020
H258        H  0.44621464  0.32097369  0.37202020     0.15020
C259        C  0.43629026  0.37999280  0.41848330     0.36670
C260        C  0.07348831  0.32589016  0.36147853     0.36580
N261        N  0.40709634  0.38720639  0.42997979    -0.43670
N262        N  0.10139868  0.31455806  0.35028929    -0.43670
C263        C  0.48693878  0.18194519  0.36801082    -0.00080
C264        C  0.00613850  0.15099234  0.35389250    -0.11960
C265        C  0.00378312  0.11684752  0.37552818     0.02150
C266        C  0.48265881  0.11290091  0.41376437    -0.00170
C267        C  0.46256008  0.14356633  0.42733458    -0.11900
C268        C  0.46409427  0.17756804  0.40468067     0.02040
H269        H  0.02374816  0.15352505  0.32589674     0.15020
H270        H  0.44574405  0.14115433  0.45601140     0.15020
C271        C  0.44099867  0.20698006  0.41912422     0.36670
C272        C  0.02367670  0.08661554  0.35717107     0.36580
N273        N  0.42242838  0.23049472  0.43077917    -0.43670
N274        N  0.03951717  0.06252026  0.34206090    -0.43670
C275        C  0.11970429  0.02058501  0.58419626    -0.00080
C276        C  0.12252281  0.49552834  0.61936676    -0.11960
C277        C  0.15460236  0.49341053  0.64494210     0.02150
C278        C  0.18456845  0.51774919  0.63683115    -0.00170
C279        C  0.18124539  0.04426009  0.60339759    -0.11900
C280        C  0.14934719  0.04572229  0.57686650     0.02040
H281        H  0.10032370  0.47575415  0.62570006     0.15020
H282        H  0.20412448  0.06329431  0.59726035     0.15020
C283        C  0.14849585  0.07258043  0.54196205     0.36670
C284        C  0.15690773  0.46391827  0.67680580     0.36580
N285        N  0.14815754  0.09408636  0.51393497    -0.43670
N286        N  0.15868687  0.44022302  0.70220284    -0.43670
C287        C  0.38458726  0.50997338  0.58427177    -0.00080
C288        C  0.37112316  0.04271380  0.60184902    -0.11960
C289        C  0.33946038  0.04205837  0.62682348     0.02150
C290        C  0.32113589  0.50819029  0.63490373    -0.00170
C291        C  0.33495073  0.47529219  0.61879119    -0.11900
C292        C  0.36639997  0.47585356  0.59324751     0.02040
H293        H  0.38480254  0.06904540  0.59512837     0.15020
H294        H  0.32039782  0.44933231  0.62503512     0.15020
C295        C  0.37733908  0.44149404  0.57410685     0.36670
C296        C  0.32548847  0.07648451  0.64272813     0.36580
N297        N  0.38556256  0.41383818  0.55862536    -0.43670
N298        N  0.31405227  0.10396874  0.65541121    -0.43670
C299        C  0.17790895  0.48425346  0.36150554    -0.00080
C300        C  0.16078787  0.01741562  0.37083972    -0.11960
C301        C  0.13032048  0.01761554  0.39768601     0.02150
C302        C  0.11645251  0.98392286  0.41518864    -0.00170
C303        C  0.13352802  0.45064797  0.40559341    -0.11900
C304        C  0.16412402  0.45059282  0.37861115     0.02040
H305        H  0.17216316  0.04331123  0.35844226     0.15020
H306        H  0.12295595  0.42484219  0.41906812     0.15020
C307        C  0.18108027  0.41589049  0.36888747     0.36670
C308        C  0.11544466  0.05302063  0.40908303     0.36580
N309        N  0.19463911  0.38810982  0.36083565    -0.43670
N310        N  0.10363809  0.08134235  0.41840567    -0.43670
C311        C  0.37877781  0.48223117  0.42090762    -0.00080
C312        C  0.34939223  0.45742123  0.42895107    -0.11960
C313        C  0.31772663  0.45683916  0.40267394     0.02150
C314        C  0.31430711  0.48243471  0.36803237    -0.00170
C315        C  0.34393959  0.00682612  0.35922444    -0.11900
C316        C  0.37624977  0.00668508  0.38502345     0.02040
H317        H  0.35091533  0.43832148  0.45625955     0.15020
H318        H  0.34167811  0.02637757  0.33245105     0.15020
C319        C  0.40644302  0.03098045  0.37284934     0.36670
C320        C  0.28963474  0.42910198  0.41187554     0.36580
N321        N  0.43049313  0.05032381  0.36225318    -0.43670
N322        N  0.26723098  0.40694819  0.41977755    -0.43670
O323        O  0.41575457  0.95270413  0.47411789    -0.80060
O324        O  0.05805723  0.50392628  0.43297650    -0.80090
O325        O  0.46760555  0.57595253  0.47744394    -0.80100
O326        O  0.02764011  0.91877375  0.47786917    -0.80040
O327        O  0.00431709  0.55251822  0.43187163    -0.80160
O328        O  0.48375074  0.94612507  0.43905724    -0.80080
O329        O  0.08564752  0.96805983  0.48060592    -0.80060
O330        O  0.43350644  0.50924079  0.45558830    -0.80100
C331        C  0.41066063  0.98145539  0.45142756     1.09630
C332        C  0.08455141  0.48386592  0.44362696     1.09510
C333        C  0.48380582  0.57858834  0.44150839     1.09650
C334        C  0.00621224  0.91982465  0.44433492     1.09530
O335        O  0.46785066  0.91955357  0.52272326    -0.80070
O336        O  0.02887325  0.57908630  0.51867627    -0.80140
O337        O  0.41878400  0.54260388  0.53128622    -0.80080
O338        O  0.06252164  0.99320089  0.56474492    -0.80060
O339        O  0.08618513  0.53141000  0.51667586    -0.80110
O340        O  0.43721855  0.98606605  0.54780938    -0.80080
O341        O  0.00970134  0.94047330  0.56756421    -0.80030
O342        O  0.48988934  0.54973418  0.56123188    -0.80100
Co343      Co  0.46304354  0.96870284  0.49166887     1.51530
Co344      Co  0.04232621  0.53930347  0.47560892     1.51690
Co345      Co  0.46423422  0.52710313  0.51022477     1.51570
Co346      Co  0.04405464  0.95760794  0.52209846     1.51470
O347        O  0.51005607  0.99808193  0.49992037    -1.42000
C348        C  0.98666099  0.91549702  0.55735958     1.09550
C349        C  0.51080577  0.57754365  0.55392110     1.09640
C350        C  0.41472629  0.01301689  0.55308481     1.09580
C351        C  0.08730476  0.51615877  0.55414272     1.09550
C352        C  0.49168748  0.71783011  0.34352057     0.03200
C353        C  0.49739094  0.75175228  0.36538275    -0.12950
C354        C  0.50357444  0.78490023  0.34210944     0.00700
C355        C  0.50530685  0.78395333  0.29652637    -0.11470
C356        C  0.50004842  0.75043946  0.27414843     0.03190
C357        C  0.49273700  0.71780260  0.29764633    -0.10890
H358        H  0.49745900  0.75255812  0.40056462     0.08790
H359        H  0.50993526  0.80938633  0.27843143     0.06320
H360        H  0.48801530  0.69226171  0.27996734     0.06160
C361        C  0.27976423  0.98494903  0.34184954     0.03200
C362        C  0.28044965  0.98750197  0.29634267    -0.12950
C363        C  0.24732563  0.99024449  0.27231553     0.00700
C364        C  0.21343401  0.98920068  0.29334444    -0.11470
C365        C  0.21281404  0.98605200  0.33852117     0.03190
C366        C  0.24576633  0.48541195  0.36268650    -0.10890
H367        H  0.30653811  0.98760947  0.27965624     0.08790
H368        H  0.18775151  0.99080023  0.27467292     0.06320
H369        H  0.24474017  0.48512662  0.39788942     0.06160
C370        C  0.28682800  0.00700949  0.65900618     0.03200
C371        C  0.25305838  0.51199406  0.63709417    -0.12950
C372        C  0.22034202  0.01410216  0.66047944     0.00700
C373        C  0.22203393  0.01169993  0.70606679    -0.11470
C374        C  0.25582572  0.00556838  0.72756200     0.03190
C375        C  0.28820220  0.00328516  0.70409658    -0.10890
H376        H  0.25236092  0.51419757  0.60191329     0.08790
H377        H  0.19721069  0.01442528  0.72480915     0.06320
H378        H  0.31451632  0.99958545  0.72095818     0.06160
C379        C  0.49415153  0.71054196  0.65879427     0.03200
C380        C  0.49423231  0.71121529  0.70459884    -0.12950
C381        C  0.48996735  0.74458111  0.72698741     0.00700
C382        C  0.48626227  0.77779483  0.70343205    -0.11470
C383        C  0.48604191  0.77794555  0.65762060     0.03190
C384        C  0.48993167  0.74409538  0.63576026    -0.10890
H385        H  0.49845087  0.68592736  0.72298081     0.08790
H386        H  0.48457057  0.80359656  0.72091866     0.06320
H387        H  0.48977376  0.74388127  0.60052235     0.06160
C388        C  0.25031278  0.96922333  0.15319799     0.03200
C389        C  0.25273563  0.96468152  0.19831322    -0.12950
C390        C  0.24794184  0.99514070  0.22525594     0.00700
C391        C  0.24089648  0.52996957  0.20719319    -0.11470
C392        C  0.23980935  0.53469002  0.16198464     0.03190
C393        C  0.24505066  0.00426811  0.13518807    -0.10890
H394        H  0.25622094  0.93735937  0.21235579     0.08790
H395        H  0.23578161  0.55312990  0.22830174     0.06320
H396        H  0.24351936  0.00748548  0.10010637     0.06160
O397        O  0.26380270  0.81899489  0.03753606    -0.80060
O398        O  0.21390517  0.66585171  0.02280767    -0.80090
O399        O  0.19753576  0.76613862  0.06196409    -0.80100
O400        O  0.30341432  0.74613989  0.06991774    -0.80040
O401        O  0.16738959  0.72372906  0.02286630    -0.80160
O402        O  0.32653767  0.78146880  0.02016270    -0.80080
O403        O  0.25070756  0.69291284  0.07062776    -0.80020
O404        O  0.20594320  0.83514134  0.02488444    -0.80100
C405        C  0.23733852  0.84211212  0.04224179     1.09630
C406        C  0.22845055  0.66708606  0.06075853     1.09510
C407        C  0.17006063  0.74398287  0.05687959     1.09650
C408        C  0.32948557  0.76661693  0.05737679     1.09530
O409        O  0.29924138  0.75665572  0.93782392    -0.80070
O410        O  0.19150988  0.74277978  0.93358450    -0.80140
O411        O  0.23652340  0.81338283  0.95131387    -0.80080
O412        O  0.27668909  0.66385508  0.98873064    -0.80060
O413        O  0.24051290  0.68830936  0.93844274    -0.80110
O414        O  0.29601319  0.82894676  0.96030413    -0.80080
O415        O  0.32767993  0.71950234  0.98430602    -0.80030
O416        O  0.17031239  0.78257532  0.97753658    -0.80100
Co417      Co  0.27834886  0.78504245  0.98595440     1.51530
Co418      Co  0.20577198  0.70732704  0.97972322     1.51690
Co419      Co  0.21986243  0.78752099  0.00887490     1.51570
Co420      Co  0.28719294  0.70772724  0.02789033     1.51470
O421        O  0.24755075  0.74067285  0.00173630    -1.42000
C422        C  0.32643603  0.73641554  0.94767789     1.09550
C423        C  0.16625234  0.76455110  0.94267999     1.09640
C424        C  0.26491485  0.83396655  0.94176530     1.09580
C425        C  0.26208125  0.66329043  0.95070923     1.09550
C426        C  0.03666343  0.74762762  0.15950881     0.03200
C427        C  0.03533323  0.74724762  0.20510111    -0.12950
C428        C  0.50134373  0.74962250  0.22600662     0.00700
C429        C  0.46845567  0.75134933  0.20098995    -0.11470
C430        C  0.46903361  0.75325899  0.15504472     0.03190
C431        C  0.50382553  0.75232673  0.13496684    -0.10890
H432        H  0.06068794  0.74507461  0.22427105     0.08790
H433        H  0.44247018  0.75144602  0.21778174     0.06320
H434        H  0.50594219  0.75607474  0.10020868     0.06160
C435        C  0.25939379  0.96671207  0.84105699     0.03200
C436        C  0.26424032  0.99918643  0.86529848    -0.12950
C437        C  0.26498530  0.53356233  0.84434045     0.00700
C438        C  0.26207938  0.53550607  0.79901471    -0.11470
C439        C  0.25788652  0.00317594  0.77480316     0.03190
C440        C  0.25663642  0.96873815  0.79563680    -0.10890
H441        H  0.26648987  0.99778619  0.90047998     0.08790
H442        H  0.26271313  0.56216613  0.78265020     0.06320
H443        H  0.25321926  0.94371091  0.77662395     0.06160
C444        C  0.02698407  0.75128026  0.84329442     0.03200
C445        C  0.49404666  0.74634884  0.86648781    -0.12950
C446        C  0.45980731  0.74039418  0.84463374     0.00700
C447        C  0.45873183  0.73942174  0.79887093    -0.11470
C448        C  0.49120282  0.74496742  0.77518607     0.03190
C449        C  0.02499164  0.75127399  0.79747972    -0.10890
H450        H  0.49502201  0.74677256  0.90172544     0.08790
H451        H  0.43253376  0.73536653  0.78165753     0.06320
H452        H  0.04977306  0.75622985  0.77897881     0.06160
C453        C  0.26549382  0.63106892  0.92214315    -0.00080
C454        C  0.23533944  0.62259155  0.89413311    -0.11960
C455        C  0.23498723  0.59115321  0.86841985     0.02150
C456        C  0.26544295  0.56759201  0.87003636    -0.00170
C457        C  0.29593900  0.57601751  0.89738335    -0.11900
C458        C  0.29627702  0.60769175  0.92336655     0.02040
H459        H  0.21119731  0.63993742  0.89328774     0.15020
H460        H  0.31944257  0.55783999  0.89832870     0.15020
C461        C  0.32869590  0.61597551  0.94994763     0.36670
C462        C  0.20225532  0.58272102  0.84227339     0.36580
N463        N  0.35476929  0.62271596  0.97108371    -0.43670
N464        N  0.17605169  0.57590486  0.82139351    -0.43670
C465        C  0.26053881  0.86450941  0.91100001    -0.00080
C466        C  0.23320674  0.89021367  0.91945015    -0.11960
C467        C  0.23168040  0.92335343  0.89618074     0.02150
C468        C  0.25759048  0.93068559  0.86341203    -0.00170
C469        C  0.28340771  0.90382798  0.85309102    -0.11900
C470        C  0.28521886  0.87086090  0.87687609     0.02040
H471        H  0.21417724  0.88520340  0.94575172     0.15020
H472        H  0.30298599  0.90920930  0.82748182     0.15020
C473        C  0.31220435  0.84389136  0.86545849     0.36670
C474        C  0.20370120  0.94953268  0.90701034     0.36580
N475        N  0.33363709  0.82222584  0.85585990    -0.43670
N476        N  0.18141005  0.97055331  0.91591099    -0.43670
C477        C  0.36537087  0.76651281  0.08160075    -0.00080
C478        C  0.39468482  0.74767265  0.06329828    -0.11960
C479        C  0.42776006  0.74170629  0.08678023     0.02150
C480        C  0.43350687  0.75746263  0.12871825    -0.00170
C481        C  0.40396795  0.77714347  0.14638146    -0.11900
C482        C  0.36981281  0.78031226  0.12411053     0.02040
H483        H  0.39087328  0.73549651  0.03133554     0.15020
H484        H  0.40712716  0.78985792  0.17804567     0.15020
C485        C  0.33957616  0.79730990  0.14583746     0.36670
C486        C  0.45354880  0.71667245  0.06802027     0.36580
N487        N  0.31528966  0.81070250  0.16342377    -0.43670
N488        N  0.47396339  0.69648769  0.05272704    -0.43670
C489        C  0.07258862  0.74482397  0.13706188    -0.00080
C490        C  0.09638190  0.77570492  0.13599914    -0.11960
C491        C  0.12907214  0.77547633  0.11219889     0.02150
C492        C  0.13860904  0.74383813  0.08805395    -0.00170
C493        C  0.11520625  0.71231005  0.09071684    -0.11900
C494        C  0.08274795  0.71248952  0.11520428     0.02040
H495        H  0.08889047  0.80052715  0.15310115     0.15020
H496        H  0.12206712  0.68748774  0.07325915     0.15020
C497        C  0.06049564  0.67904633  0.11800555     0.36670
C498        C  0.15117291  0.80890606  0.11248534     0.36580
N499        N  0.04284344  0.65213312  0.12067765    -0.43670
N500        N  0.16822749  0.83619000  0.11424433    -0.43670
C501        C  0.35971192  0.73742176  0.91998367    -0.00080
C502        C  0.36792449  0.70724726  0.89350789    -0.11960
C503        C  0.40012523  0.70754796  0.86833344     0.02150
C504        C  0.42497179  0.73825876  0.86987581    -0.00170
C505        C  0.41675164  0.76809555  0.89655789    -0.11900
C506        C  0.38471257  0.76803019  0.92129583     0.02040
H507        H  0.34926276  0.68341168  0.89259473     0.15020
H508        H  0.43558809  0.79181573  0.89799151     0.15020
C509        C  0.37907747  0.79980077  0.94831445     0.36670
C510        C  0.40780172  0.67558993  0.84242125     0.36580
N511        N  0.37597176  0.82588965  0.96942297    -0.43670
N512        N  0.41408175  0.64998974  0.82163525    -0.43670
C513        C  0.13128638  0.76482980  0.91549708    -0.00080
C514        C  0.12789435  0.74006801  0.88036374    -0.11960
C515        C  0.09459161  0.73533458  0.85670733     0.02150
C516        C  0.06339893  0.75627128  0.86702950    -0.00170
C517        C  0.06682445  0.78166567  0.90148022    -0.11900
C518        C  0.10010001  0.78601326  0.92570821     0.02040
H519        H  0.15105719  0.72306218  0.87212314     0.15020
H520        H  0.04322766  0.79805158  0.90977462     0.15020
C521        C  0.10091998  0.81181907  0.96136291     0.36670
C522        C  0.09270901  0.70696650  0.82382426     0.36580
N523        N  0.10149561  0.83242833  0.99002470    -0.43670
N524        N  0.09124043  0.68419997  0.79753004    -0.43670
C525        C  0.23222108  0.57089747  0.14186812    -0.00080
C526        C  0.20511337  0.57281627  0.10860959    -0.11960
C527        C  0.20133025  0.60470285  0.08318951     0.02150
C528        C  0.22469492  0.63571910  0.09157849    -0.00170
C529        C  0.24939999  0.63468413  0.12761172    -0.11900
C530        C  0.25381977  0.60252538  0.15216667     0.02040
H531        H  0.18792295  0.54863798  0.10121906     0.15020
H532        H  0.26746338  0.65821732  0.13494931     0.15020
C533        C  0.28306295  0.60183360  0.18490024     0.36670
C534        C  0.17443439  0.60393404  0.04781677     0.36580
N535        N  0.30655886  0.60127840  0.21101004    -0.43670
N536        N  0.15297847  0.60311922  0.01937138    -0.43670
C537        C  0.24758490  0.93701818  0.12466883    -0.00080
C538        C  0.27897481  0.91628885  0.11709000    -0.11960
C539        C  0.27703930  0.88617513  0.08874990     0.02150
C540        C  0.24260604  0.87555875  0.06929472    -0.00170
C541        C  0.21185346  0.89792288  0.07543361    -0.11900
C542        C  0.21395822  0.92812305  0.10310116     0.02040
H543        H  0.30519627  0.92435786  0.13234554     0.15020
H544        H  0.18564829  0.89157275  0.05912419     0.15020
C545        C  0.18101327  0.94925298  0.10943444     0.36670
C546        C  0.31127599  0.86904953  0.07784850     0.36580
N547        N  0.15472945  0.96629707  0.11449196    -0.43670
N548        N  0.33913754  0.85637718  0.06863426    -0.43670
C549        C  0.48561793  0.88021455  0.58245030    -0.00080
C550        C  0.45903541  0.87414924  0.61445765    -0.11960
C551        C  0.45835262  0.84120357  0.63925971     0.02150
C552        C  0.48477006  0.81351500  0.63226548    -0.00170
C553        C  0.01127522  0.81988455  0.60022684    -0.11900
C554        C  0.01204319  0.85266692  0.57568658     0.02040
H555        H  0.43895058  0.89528342  0.62036760     0.15020
H556        H  0.03205579  0.79928731  0.59477963     0.15020
C557        C  0.04080842  0.85716693  0.54417083     0.36670
C558        C  0.42969346  0.83619117  0.67080483     0.36580
N559        N  0.06437751  0.85975188  0.51940609    -0.43670
N560        N  0.40676294  0.83225440  0.69618772    -0.43670
C561        C  0.51025449  0.61041837  0.58368885    -0.00080
C562        C  0.48459350  0.61067582  0.61760255    -0.11960
C563        C  0.47914753  0.64249914  0.64260516     0.02150
C564        C  0.49996109  0.67525700  0.63460250    -0.00170
C565        C  0.02636913  0.67477520  0.60175206    -0.11900
C566        C  0.03162177  0.64316422  0.57641077     0.02040
H567        H  0.46744867  0.58631847  0.62364570     0.15020
H568        H  0.04284293  0.69955793  0.59545359     0.15020
C569        C  0.05852456  0.64595253  0.54246910     0.36670
C570        C  0.45033744  0.64137395  0.67440071     0.36580
N571        N  0.07992773  0.64850466  0.51511959    -0.43670
N572        N  0.42723307  0.64049414  0.69986643    -0.43670
C573        C  0.50512748  0.88762781  0.41407379    -0.00080
C574        C  0.03844276  0.87279800  0.39982013    -0.11960
C575        C  0.03864632  0.83999422  0.37528101     0.02150
C576        C  0.50516973  0.82088355  0.36544679    -0.00170
C577        C  0.47202545  0.83570916  0.37926196    -0.11900
C578        C  0.47161397  0.86860002  0.40314886     0.02040
H579        H  0.06442774  0.88664353  0.40833712     0.15020
H580        H  0.44621514  0.82097368  0.37202061     0.15020
C581        C  0.43629097  0.87999277  0.41848376     0.36670
C582        C  0.07348877  0.82588998  0.36147841     0.36580
N583        N  0.40709708  0.88720632  0.42998037    -0.43670
N584        N  0.10139909  0.81455781  0.35028907    -0.43670
C585        C  0.48693840  0.68194519  0.36801080    -0.00080
C586        C  0.00613794  0.65099224  0.35389244    -0.11960
C587        C  0.00378239  0.61684741  0.37552809     0.02150
C588        C  0.48265810  0.61290090  0.41376430    -0.00170
C589        C  0.46255954  0.64356642  0.42733455    -0.11900
C590        C  0.46409390  0.67756814  0.40468067     0.02040
H591        H  0.02374759  0.65352486  0.32589665     0.15020
H592        H  0.44574353  0.64115449  0.45601140     0.15020
C593        C  0.44099847  0.70698028  0.41912427     0.36670
C594        C  0.02367579  0.58661534  0.35717093     0.36580
N595        N  0.42242832  0.73049504  0.43077926    -0.43670
N596        N  0.03951614  0.56251998  0.34206073    -0.43670
C597        C  0.11970352  0.52058485  0.58419607    -0.00080
C598        C  0.12252349  0.99552869  0.61936714    -0.11960
C599        C  0.15460303  0.99341091  0.64494251     0.02150
C600        C  0.18456922  0.01774940  0.63683137    -0.00170
C601        C  0.18124457  0.54426000  0.60339753    -0.11900
C602        C  0.14934637  0.54572222  0.57686644     0.02040
H603        H  0.10032431  0.97575461  0.62570058     0.15020
H604        H  0.20412360  0.56329431  0.59726040     0.15020
C605        C  0.14849495  0.57258051  0.54196214     0.36670
C606        C  0.15690829  0.96391881  0.67680643     0.36580
N607        N  0.14815659  0.59408654  0.51393518    -0.43670
N608        N  0.15868733  0.94022370  0.70220365    -0.43670
C609        C  0.38458804  0.00997337  0.58427174    -0.00080
C610        C  0.37112240  0.54271380  0.60184906    -0.11960
C611        C  0.33945963  0.54205838  0.62682354     0.02150
C612        C  0.32113665  0.00819028  0.63490367    -0.00170
C613        C  0.33495149  0.97529219  0.61879113    -0.11900
C614        C  0.36640074  0.97585356  0.59324747     0.02040
H615        H  0.38480177  0.56904540  0.59512840     0.15020
H616        H  0.32039859  0.94933230  0.62503507     0.15020
C617        C  0.37733987  0.94149404  0.57410681     0.36670
C618        C  0.32548772  0.57648451  0.64272819     0.36580
N619        N  0.38556336  0.91383818  0.55862533    -0.43670
N620        N  0.31405151  0.60396875  0.65541128    -0.43670
C621        C  0.17790985  0.98425347  0.36150566    -0.00080
C622        C  0.16078696  0.51741561  0.37083960    -0.11960
C623        C  0.13031957  0.51761551  0.39768590     0.02150
C624        C  0.11645163  0.48392282  0.41518853    -0.00170
C625        C  0.13352890  0.95064799  0.40559352    -0.11900
C626        C  0.16412490  0.95059283  0.37861127     0.02040
H627        H  0.17216224  0.54331122  0.35844215     0.15020
H628        H  0.12295680  0.92484223  0.41906822     0.15020
C629        C  0.18108113  0.91589049  0.36888759     0.36670
C630        C  0.11544374  0.55302059  0.40908293     0.36580
N631        N  0.19463997  0.88810982  0.36083579    -0.43670
N632        N  0.10363716  0.58134230  0.41840559    -0.43670
C633        C  0.37877869  0.98223119  0.42090760    -0.00080
C634        C  0.34939313  0.95742123  0.42895103    -0.11960
C635        C  0.31772754  0.95683914  0.40267389     0.02150
C636        C  0.31430800  0.98243470  0.36803233    -0.00170
C637        C  0.34393870  0.50682612  0.35922447    -0.11900
C638        C  0.37624889  0.50668506  0.38502347     0.02040
H639        H  0.35091622  0.93832148  0.45625952     0.15020
H640        H  0.34167723  0.52637756  0.33245108     0.15020
C641        C  0.40644214  0.53098042  0.37284934     0.36670
C642        C  0.28963566  0.92910193  0.41187546     0.36580
N643        N  0.43049226  0.55032378  0.36225318    -0.43670
N644        N  0.26723193  0.90694812  0.41977745    -0.43670
O645        O  0.91575372  0.45270408  0.47411785    -0.80060
O646        O  0.55805812  0.00392635  0.43297661    -0.80090
O647        O  0.96760637  0.07595253  0.47744401    -0.80100
O648        O  0.52763928  0.41877375  0.47786913    -0.80040
O649        O  0.50431797  0.05251829  0.43187171    -0.80160
O650        O  0.98374989  0.44612504  0.43905719    -0.80080
O651        O  0.58564667  0.46805982  0.48060584    -0.80060
O652        O  0.93350731  0.00924081  0.45558829    -0.80100
C653        C  0.91065976  0.48145536  0.45142756     1.09630
C654        C  0.58455229  0.98386597  0.44362707     1.09510
C655        C  0.98380665  0.07858836  0.44150846     1.09650
C656        C  0.50621144  0.41982466  0.44433487     1.09530
O657        O  0.96784985  0.41955353  0.52272323    -0.80070
O658        O  0.52887405  0.07908633  0.51867640    -0.80140
O659        O  0.91878481  0.04260388  0.53128621    -0.80080
O660        O  0.56252077  0.49320093  0.56474483    -0.80060
O661        O  0.58618595  0.03141005  0.51667601    -0.80110
O662        O  0.93721772  0.48606603  0.54780934    -0.80080
O663        O  0.50970051  0.44047332  0.56756417    -0.80030
O664        O  0.98989013  0.04973416  0.56123195    -0.80100
Co665      Co  0.96304269  0.46870281  0.49166882     1.51530
Co666      Co  0.54232706  0.03930352  0.47560903     1.51690
Co667      Co  0.96423505  0.02710313  0.51022480     1.51570
Co668      Co  0.54405380  0.45760794  0.52209840     1.51470
O669        O  0.01005521  0.49808191  0.49992029    -1.42000
C670        C  0.48666021  0.41549700  0.55735954     1.09550
C671        C  0.01080653  0.07754365  0.55392120     1.09640
C672        C  0.91472548  0.51301689  0.55308480     1.09580
C673        C  0.58730557  0.01615881  0.55414287     1.09550
C674        C  0.99168764  0.21783011  0.34352054     0.03200
C675        C  0.99739086  0.25175233  0.36538267    -0.12950
C676        C  0.00357411  0.28490030  0.34210932     0.00700
C677        C  0.00530650  0.28395338  0.29652625    -0.11470
C678        C  0.00004834  0.25043946  0.27414836     0.03190
C679        C  0.99273717  0.21780256  0.29764630    -0.10890
H680        H  0.99745894  0.25255819  0.40056454     0.08790
H681        H  0.00993474  0.30938640  0.27843128     0.06320
H682        H  0.98801566  0.19226163  0.27996734     0.06160
C683        C  0.77976335  0.48494902  0.34184954     0.03200
C684        C  0.78044881  0.48750195  0.29634267    -0.12950
C685        C  0.74732482  0.49024448  0.27231548     0.00700
C686        C  0.71343317  0.48920068  0.29334435    -0.11470
C687        C  0.71281316  0.48605201  0.33852108     0.03190
C688        C  0.74576722  0.98541193  0.36268655    -0.10890
H689        H  0.80653729  0.48760944  0.27965626     0.08790
H690        H  0.68775069  0.49080023  0.27467280     0.06320
H691        H  0.74474109  0.98512660  0.39788947     0.06160
C692        C  0.78682721  0.50700950  0.65900618     0.03200
C693        C  0.75305914  0.01199412  0.63709424    -0.12950
C694        C  0.72034122  0.51410201  0.66047930     0.00700
C695        C  0.72203305  0.51169974  0.70606664    -0.11470
C696        C  0.75582482  0.50556829  0.72756193     0.03190
C697        C  0.78820135  0.50328516  0.70409658    -0.10890
H698        H  0.75236163  0.01419760  0.60191336     0.08790
H699        H  0.69720975  0.51442499  0.72480894     0.06320
H700        H  0.81451545  0.49958551  0.72095823     0.06160
C701        C  0.99415178  0.21054196  0.65879423     0.03200
C702        C  0.99423255  0.21121531  0.70459879    -0.12950
C703        C  0.98996737  0.24458110  0.72698735     0.00700
C704        C  0.98626209  0.27779479  0.70343196    -0.11470
C705        C  0.98604177  0.27794549  0.65762052     0.03190
C706        C  0.98993175  0.24409535  0.63576019    -0.10890
H707        H  0.99845124  0.18592741  0.72298078     0.08790
H708        H  0.98457021  0.30359651  0.72091856     0.06320
H709        H  0.98977387  0.24388123  0.60052229     0.06160
C710        C  0.75031225  0.46922334  0.15319795     0.03200
C711        C  0.75273498  0.46468152  0.19831319    -0.12950
C712        C  0.74794108  0.49514069  0.22525589     0.00700
C713        C  0.74089721  0.02996958  0.20719326    -0.11470
C714        C  0.73980996  0.03469002  0.16198471     0.03190
C715        C  0.74505015  0.50426812  0.13518802    -0.10890
H716        H  0.75622029  0.43735937  0.21235576     0.08790
H717        H  0.73578241  0.05312992  0.22830182     0.06320
H718        H  0.74351895  0.50748549  0.10010631     0.06160
O719        O  0.76380259  0.31899494  0.03753601    -0.80060
O720        O  0.71390537  0.16585165  0.02280783    -0.80090
O721        O  0.69753578  0.26613853  0.06196415    -0.80100
O722        O  0.80341435  0.24614008  0.06991772    -0.80040
O723        O  0.66738966  0.22372890  0.02286641    -0.80160
O724        O  0.82653765  0.28146897  0.02016262    -0.80080
O725        O  0.75070771  0.19291291  0.07062786    -0.80020
O726        O  0.70594305  0.33514123  0.02488443    -0.80100
C727        C  0.73733836  0.34211211  0.04224175     1.09630
C728        C  0.72845077  0.16708607  0.06075868     1.09510
C729        C  0.67006066  0.24398274  0.05687968     1.09650
C730        C  0.82948557  0.26661713  0.05737673     1.09530
O731        O  0.79924134  0.25665578  0.93782389    -0.80070
O732        O  0.69150984  0.24277957  0.93358456    -0.80140
O733        O  0.73652324  0.31338274  0.95131386    -0.80080
O734        O  0.77668929  0.16385513  0.98873077    -0.80060
O735        O  0.74051299  0.18830925  0.93844285    -0.80110
O736        O  0.79601301  0.32894683  0.96030404    -0.80080
O737        O  0.82767999  0.21950248  0.98430602    -0.80030
O738        O  0.67031234  0.28257513  0.97753663    -0.80100
Co739      Co  0.77834880  0.28504250  0.98595436     1.51530
Co740      Co  0.70577206  0.20732691  0.97972333     1.51690
Co741      Co  0.71986237  0.28752092  0.00887493     1.51570
Co742      Co  0.78719305  0.20772734  0.02789039     1.51470
O743        O  0.74755078  0.24067283  0.00173632    -1.42000
C744        C  0.82643604  0.23641564  0.94767787     1.09550
C745        C  0.66625230  0.26455089  0.94268005     1.09640
C746        C  0.76491464  0.33396654  0.94176526     1.09580
C747        C  0.76208145  0.16329041  0.95070936     1.09550
C748        C  0.53666341  0.24762754  0.15950878     0.03200
C749        C  0.53533318  0.24724751  0.20510108    -0.12950
C750        C  0.00134367  0.24962247  0.22600656     0.00700
C751        C  0.96845564  0.25134939  0.20098986    -0.11470
C752        C  0.96903361  0.25325906  0.15504463     0.03190
C753        C  0.00382554  0.25232674  0.13496678    -0.10890
H754        H  0.56068788  0.24507445  0.22427104     0.08790
H755        H  0.94247014  0.25144614  0.21778163     0.06320
H756        H  0.00594223  0.25607477  0.10020863     0.06160
C757        C  0.75939295  0.46671203  0.84105694     0.03200
C758        C  0.76423950  0.49918639  0.86529840    -0.12950
C759        C  0.76498619  0.03356237  0.84434054     0.00700
C760        C  0.76208035  0.03550613  0.79901481    -0.11470
C761        C  0.75788555  0.50317586  0.77480309     0.03190
C762        C  0.75663550  0.46873809  0.79563675    -0.10890
H763        H  0.76648914  0.49778617  0.90047989     0.08790
H764        H  0.76271409  0.06216620  0.78265032     0.06320
H765        H  0.75321835  0.44371084  0.77662392     0.06160
C766        C  0.52698405  0.25128022  0.84329439     0.03200
C767        C  0.99404663  0.24634887  0.86648775    -0.12950
C768        C  0.95980728  0.24039426  0.84463366     0.00700
C769        C  0.95873181  0.23942183  0.79887086    -0.11470
C770        C  0.99120282  0.24496743  0.77518601     0.03190
C771        C  0.52499165  0.25127393  0.79747969    -0.10890
H772        H  0.99502196  0.24677260  0.90172538     0.08790
H773        H  0.93253374  0.23536666  0.78165745     0.06320
H774        H  0.54977308  0.25622973  0.77897879     0.06160
C775        C  0.76549419  0.13106893  0.92214328    -0.00080
C776        C  0.73533986  0.12259141  0.89413323    -0.11960
C777        C  0.73498783  0.09115308  0.86841995     0.02150
C778        C  0.76544367  0.06759203  0.87003648    -0.00170
C779        C  0.79593967  0.07601767  0.89738349    -0.11900
C780        C  0.79627751  0.10769190  0.92336670     0.02040
H781        H  0.71119765  0.13993716  0.89328783     0.15020
H782        H  0.81944333  0.05784027  0.89832886     0.15020
C783        C  0.82869633  0.11597581  0.94994781     0.36670
C784        C  0.70225597  0.08272074  0.84227346     0.36580
N785        N  0.85476968  0.12271639  0.97108392    -0.43670
N786        N  0.67605240  0.07590445  0.82139356    -0.43670
C787        C  0.76053846  0.36450941  0.91100000    -0.00080
C788        C  0.73320635  0.39021359  0.91945026    -0.11960
C789        C  0.73167985  0.42335334  0.89618084     0.02150
C790        C  0.75758980  0.43068554  0.86341200    -0.00170
C791        C  0.78340706  0.40382800  0.85309090    -0.11900
C792        C  0.78521839  0.37086095  0.87687598     0.02040
H793        H  0.71417695  0.38520328  0.94575192     0.15020
H794        H  0.80298525  0.40920936  0.82748160     0.15020
C795        C  0.81220392  0.34389148  0.86545830     0.36670
C796        C  0.70370063  0.44953253  0.90701057     0.36580
N797        N  0.83363671  0.32222602  0.85585966    -0.43670
N798        N  0.68140946  0.47055310  0.91591134    -0.43670
C799        C  0.86537090  0.26651304  0.08160066    -0.00080
C800        C  0.89468484  0.24767288  0.06329816    -0.11960
C801        C  0.92776007  0.24170648  0.08678011     0.02150
C802        C  0.93350689  0.25746278  0.12871815    -0.00170
C803        C  0.90396799  0.27714364  0.14638137    -0.11900
C804        C  0.86981285  0.28031246  0.12411045     0.02040
H805        H  0.89087329  0.23549675  0.03133542     0.15020
H806        H  0.90712720  0.28985808  0.17804558     0.15020
C807        C  0.83957620  0.29731007  0.14583741     0.36670
C808        C  0.95354878  0.21667262  0.06802013     0.36580
N809        N  0.81528970  0.31070265  0.16342375    -0.43670
N810        N  0.97396336  0.19648785  0.05272689    -0.43670
C811        C  0.57258862  0.24482387  0.13706189    -0.00080
C812        C  0.59638187  0.27570483  0.13599912    -0.11960
C813        C  0.62907214  0.27547624  0.11219890     0.02150
C814        C  0.63860907  0.24383802  0.08805403    -0.00170
C815        C  0.61520630  0.21230992  0.09071696    -0.11900
C816        C  0.58274799  0.21248940  0.11520437     0.02040
H817        H  0.58889042  0.30052708  0.15310107     0.15020
H818        H  0.62206720  0.18748760  0.07325931     0.15020
C819        C  0.56049570  0.17904620  0.11800569     0.36670
C820        C  0.65117289  0.30890597  0.11248534     0.36580
N821        N  0.54284351  0.15213298  0.12067783    -0.43670
N822        N  0.66822746  0.33618992  0.11424433    -0.43670
C823        C  0.85971190  0.23742187  0.91998360    -0.00080
C824        C  0.86792449  0.20724734  0.89350789    -0.11960
C825        C  0.90012523  0.20754804  0.86833343     0.02150
C826        C  0.92497175  0.23825887  0.86987572    -0.00170
C827        C  0.91675156  0.26809570  0.89655772    -0.11900
C828        C  0.88471250  0.26803034  0.92129567     0.02040
H829        H  0.84926280  0.18341174  0.89259479     0.15020
H830        H  0.93558799  0.29181591  0.89799128     0.15020
C831        C  0.87907736  0.29980096  0.94831422     0.36670
C832        C  0.90780175  0.17558998  0.84242130     0.36580
N833        N  0.87597161  0.32588986  0.96942269    -0.43670
N834        N  0.91408181  0.14998977  0.82163536    -0.43670
C835        C  0.63128635  0.26482962  0.91549712    -0.00080
C836        C  0.62789430  0.24006781  0.88036380    -0.11960
C837        C  0.59459156  0.23533443  0.85670736     0.02150
C838        C  0.56339891  0.25627119  0.86702948    -0.00170
C839        C  0.56682446  0.28166560  0.90148019    -0.11900
C840        C  0.60010001  0.28601314  0.92570820     0.02040
H841        H  0.65105711  0.22306194  0.87212323     0.15020
H842        H  0.54322768  0.29805155  0.90977456     0.15020
C843        C  0.60092000  0.31181898  0.96136287     0.36670
C844        C  0.59270894  0.20696634  0.82382430     0.36580
N845        N  0.60149565  0.33242827  0.99002463    -0.43670
N846        N  0.59124034  0.18419980  0.79753009    -0.43670
C847        C  0.73222163  0.07089746  0.14186822    -0.00080
C848        C  0.70511379  0.07281626  0.10860982    -0.11960
C849        C  0.70133057  0.10470285  0.08318977     0.02150
C850        C  0.72469527  0.13571910  0.09157864    -0.00170
C851        C  0.74940047  0.13468414  0.12761175    -0.11900
C852        C  0.75382035  0.10252538  0.15216667     0.02040
H853        H  0.68792336  0.04863797  0.10121937     0.15020
H854        H  0.76746388  0.15821733  0.13494925     0.15020
C855        C  0.78306363  0.10183360  0.18490011     0.36670
C856        C  0.67443458  0.10393405  0.04781718     0.36580
N857        N  0.80655963  0.10127840  0.21100980    -0.43670
N858        N  0.65297853  0.10311925  0.01937191    -0.43670
C859        C  0.74758447  0.43701819  0.12466877    -0.00080
C860        C  0.77897444  0.41628892  0.11709000    -0.11960
C861        C  0.77703902  0.38617521  0.08874989     0.02150
C862        C  0.74260580  0.37555877  0.06929464    -0.00170
C863        C  0.71185318  0.39792285  0.07543346    -0.11900
C864        C  0.71395784  0.42812303  0.10310102     0.02040
H865        H  0.80519586  0.42435797  0.13234559     0.15020
H866        H  0.68564804  0.39157268  0.05912400     0.15020
C867        C  0.68101285  0.44925291  0.10943421     0.36670
C868        C  0.81127575  0.36904967  0.07784853     0.36580
N869        N  0.65472900  0.46629696  0.11449167    -0.43670
N870        N  0.83913734  0.35637738  0.06863433    -0.43670
C871        C  0.98561729  0.38021450  0.58245021    -0.00080
C872        C  0.95903472  0.37414900  0.61445748    -0.11960
C873        C  0.95835209  0.34120333  0.63925954     0.02150
C874        C  0.98476973  0.31351494  0.63226538    -0.00170
C875        C  0.51127492  0.31988466  0.60022682    -0.11900
C876        C  0.51204274  0.35266704  0.57568659     0.02040
H877        H  0.93894974  0.39528305  0.62036737     0.15020
H878        H  0.53205563  0.29928755  0.59477967     0.15020
C879        C  0.54080804  0.35716725  0.54417096     0.36670
C880        C  0.92969292  0.33619075  0.67080460     0.36580
N881        N  0.56437720  0.35975236  0.51940632    -0.43670
N882        N  0.90676238  0.33225383  0.69618745    -0.43670
C883        C  0.01025516  0.11041838  0.58368893    -0.00080
C884        C  0.98459413  0.11067577  0.61760260    -0.11960
C885        C  0.97914804  0.14249908  0.64260517     0.02150
C886        C  0.99996150  0.17525701  0.63460250    -0.00170
C887        C  0.52636958  0.17477528  0.60175210    -0.11900
C888        C  0.53162236  0.14316428  0.57641087     0.02040
H889        H  0.96744937  0.08631837  0.62364575     0.15020
H890        H  0.54284330  0.19955805  0.59545363     0.15020
C891        C  0.55852521  0.14595263  0.54246927     0.36670
C892        C  0.95033793  0.14137382  0.67440069     0.36580
N893        N  0.57992844  0.14850478  0.51511983    -0.43670
N894        N  0.92723355  0.14049395  0.69986640    -0.43670
C895        C  0.00512678  0.38762786  0.41407367    -0.00080
C896        C  0.53844212  0.37279811  0.39982014    -0.11960
C897        C  0.53864580  0.33999435  0.37528100     0.02150
C898        C  0.00516926  0.32088363  0.36544664    -0.00170
C899        C  0.97202490  0.33570920  0.37926165    -0.11900
C900        C  0.97161332  0.36860005  0.40314856     0.02040
H901        H  0.56442706  0.38664367  0.40833725     0.15020
H902        H  0.94621463  0.32097370  0.37202018     0.15020
C903        C  0.93629025  0.37999281  0.41848328     0.36670
C904        C  0.57348832  0.32589018  0.36147852     0.36580
N905        N  0.90709633  0.38720641  0.42997976    -0.43670
N906        N  0.60139869  0.31455807  0.35028927    -0.43670
C907        C  0.98693877  0.18194519  0.36801081    -0.00080
C908        C  0.50613851  0.15099234  0.35389251    -0.11960
C909        C  0.50378313  0.11684752  0.37552819     0.02150
C910        C  0.98265881  0.11290091  0.41376436    -0.00170
C911        C  0.96256007  0.14356632  0.42733457    -0.11900
C912        C  0.96409426  0.17756804  0.40468066     0.02040
H913        H  0.52374817  0.15352505  0.32589674     0.15020
H914        H  0.94574404  0.14115432  0.45601139     0.15020
C915        C  0.94099865  0.20698005  0.41912421     0.36670
C916        C  0.52367670  0.08661554  0.35717108     0.36580
N917        N  0.92242836  0.23049472  0.43077916    -0.43670
N918        N  0.53951718  0.06252026  0.34206091    -0.43670
C919        C  0.61970429  0.02058501  0.58419628    -0.00080
C920        C  0.62252281  0.49552835  0.61936676    -0.11960
C921        C  0.65460235  0.49341054  0.64494211     0.02150
C922        C  0.68456845  0.51774920  0.63683116    -0.00170
C923        C  0.68124540  0.04426010  0.60339761    -0.11900
C924        C  0.64934719  0.04572229  0.57686652     0.02040
H925        H  0.60032370  0.47575416  0.62570006     0.15020
H926        H  0.70412448  0.06329431  0.59726036     0.15020
C927        C  0.64849585  0.07258043  0.54196206     0.36670
C928        C  0.65690773  0.46391828  0.67680581     0.36580
N929        N  0.64815753  0.09408636  0.51393499    -0.43670
N930        N  0.65868686  0.44022304  0.70220285    -0.43670
C931        C  0.88458726  0.50997338  0.58427177    -0.00080
C932        C  0.87112316  0.04271380  0.60184901    -0.11960
C933        C  0.83946038  0.04205837  0.62682347     0.02150
C934        C  0.82113589  0.50819029  0.63490373    -0.00170
C935        C  0.83495073  0.47529220  0.61879119    -0.11900
C936        C  0.86639997  0.47585356  0.59324752     0.02040
H937        H  0.88480254  0.06904539  0.59512835     0.15020
H938        H  0.82039782  0.44933231  0.62503512     0.15020
C939        C  0.87733907  0.44149404  0.57410685     0.36670
C940        C  0.82548848  0.07648451  0.64272812     0.36580
N941        N  0.88556255  0.41383818  0.55862536    -0.43670
N942        N  0.81405227  0.10396874  0.65541121    -0.43670
C943        C  0.67790895  0.48425346  0.36150553    -0.00080
C944        C  0.66078787  0.01741562  0.37083973    -0.11960
C945        C  0.63032048  0.01761554  0.39768602     0.02150
C946        C  0.61645251  0.98392285  0.41518865    -0.00170
C947        C  0.63352802  0.45064797  0.40559340    -0.11900
C948        C  0.66412402  0.45059282  0.37861114     0.02040
H949        H  0.67216316  0.04331123  0.35844226     0.15020
H950        H  0.62295595  0.42484220  0.41906812     0.15020
C951        C  0.68108026  0.41589049  0.36888746     0.36670
C952        C  0.61544466  0.05302063  0.40908304     0.36580
N953        N  0.69463911  0.38810981  0.36083565    -0.43670
N954        N  0.60363810  0.08134235  0.41840569    -0.43670
C955        C  0.87877780  0.48223117  0.42090762    -0.00080
C956        C  0.84939223  0.45742123  0.42895107    -0.11960
C957        C  0.81772663  0.45683916  0.40267394     0.02150
C958        C  0.81430710  0.48243471  0.36803237    -0.00170
C959        C  0.84393958  0.00682612  0.35922443    -0.11900
C960        C  0.87624977  0.00668507  0.38502344     0.02040
H961        H  0.85091532  0.43832148  0.45625955     0.15020
H962        H  0.84167810  0.02637756  0.33245104     0.15020
C963        C  0.90644301  0.03098044  0.37284932     0.36670
C964        C  0.78963473  0.42910198  0.41187554     0.36580
N965        N  0.93049312  0.05032381  0.36225316    -0.43670
N966        N  0.76723098  0.40694819  0.41977755    -0.43670
O967        O  0.91575457  0.95270413  0.47411787    -0.80060
O968        O  0.55805723  0.50392628  0.43297650    -0.80090
O969        O  0.96760555  0.57595253  0.47744394    -0.80100
O970        O  0.52764011  0.91877375  0.47786918    -0.80040
O971        O  0.50431709  0.55251822  0.43187163    -0.80160
O972        O  0.98375073  0.94612507  0.43905723    -0.80080
O973        O  0.58564752  0.96805983  0.48060594    -0.80060
O974        O  0.93350644  0.50924079  0.45558830    -0.80100
C975        C  0.91066062  0.98145539  0.45142755     1.09630
C976        C  0.58455141  0.48386592  0.44362696     1.09510
C977        C  0.98380582  0.57858834  0.44150839     1.09650
C978        C  0.50621224  0.91982465  0.44433494     1.09530
O979        O  0.96785066  0.91955357  0.52272325    -0.80070
O980        O  0.52887324  0.57908630  0.51867627    -0.80140
O981        O  0.91878400  0.54260389  0.53128623    -0.80080
O982        O  0.56252164  0.99320089  0.56474494    -0.80060
O983        O  0.58618513  0.53141001  0.51667586    -0.80110
O984        O  0.93721855  0.98606604  0.54780937    -0.80080
O985        O  0.50970134  0.94047330  0.56756423    -0.80030
O986        O  0.98988934  0.54973418  0.56123188    -0.80100
Co987      Co  0.96304354  0.96870284  0.49166885     1.51530
Co988      Co  0.54232622  0.53930348  0.47560891     1.51690
Co989      Co  0.96423421  0.52710313  0.51022477     1.51570
Co990      Co  0.54405464  0.95760794  0.52209847     1.51470
O991        O  0.01005606  0.99808193  0.49992035    -1.42000
C992        C  0.48666099  0.91549702  0.55735959     1.09550
C993        C  0.01080577  0.57754365  0.55392110     1.09640
C994        C  0.91472629  0.01301689  0.55308479     1.09580
C995        C  0.58730476  0.51615878  0.55414272     1.09550
C996        C  0.99168748  0.71783010  0.34352057     0.03200
C997        C  0.99739094  0.75175228  0.36538275    -0.12950
C998        C  0.00357444  0.78490023  0.34210944     0.00700
C999        C  0.00530685  0.78395332  0.29652636    -0.11470
C1000       C  0.00004842  0.75043946  0.27414842     0.03190
C1001       C  0.99273700  0.71780259  0.29764633    -0.10890
H1002       H  0.99745900  0.75255811  0.40056462     0.08790
H1003       H  0.00993526  0.80938633  0.27843143     0.06320
H1004       H  0.98801530  0.69226171  0.27996734     0.06160
C1005       C  0.77976422  0.98494902  0.34184954     0.03200
C1006       C  0.78044964  0.98750196  0.29634267    -0.12950
C1007       C  0.74732562  0.99024448  0.27231553     0.00700
C1008       C  0.71343400  0.98920067  0.29334444    -0.11470
C1009       C  0.71281403  0.98605199  0.33852118     0.03190
C1010       C  0.74576633  0.48541194  0.36268650    -0.10890
H1011       H  0.80653810  0.98760946  0.27965623     0.08790
H1012       H  0.68775150  0.99080022  0.27467293     0.06320
H1013       H  0.74474017  0.48512662  0.39788942     0.06160
C1014       C  0.78682801  0.00700949  0.65900618     0.03200
C1015       C  0.75305838  0.51199407  0.63709417    -0.12950
C1016       C  0.72034203  0.01410216  0.66047945     0.00700
C1017       C  0.72203395  0.01169993  0.70606680    -0.11470
C1018       C  0.75582574  0.00556838  0.72756200     0.03190
C1019       C  0.78820222  0.00328516  0.70409657    -0.10890
H1020       H  0.75236092  0.51419758  0.60191329     0.08790
H1021       H  0.69721070  0.01442528  0.72480916     0.06320
H1022       H  0.81451633  0.99958545  0.72095817     0.06160
C1023       C  0.99415153  0.71054196  0.65879426     0.03200
C1024       C  0.99423231  0.71121529  0.70459883    -0.12950
C1025       C  0.98996735  0.74458111  0.72698740     0.00700
C1026       C  0.98626227  0.77779484  0.70343205    -0.11470
C1027       C  0.98604191  0.77794555  0.65762060     0.03190
C1028       C  0.98993167  0.74409538  0.63576025    -0.10890
H1029       H  0.99845087  0.68592736  0.72298081     0.08790
H1030       H  0.98457057  0.80359656  0.72091866     0.06320
H1031       H  0.98977377  0.74388127  0.60052235     0.06160
C1032       C  0.75031277  0.96922333  0.15319799     0.03200
C1033       C  0.75273562  0.96468152  0.19831322    -0.12950
C1034       C  0.74794183  0.99514070  0.22525594     0.00700
C1035       C  0.74089648  0.52996957  0.20719318    -0.11470
C1036       C  0.73980935  0.53469002  0.16198463     0.03190
C1037       C  0.74505065  0.00426811  0.13518807    -0.10890
H1038       H  0.75622093  0.93735937  0.21235579     0.08790
H1039       H  0.73578161  0.55312990  0.22830173     0.06320
H1040       H  0.74351935  0.00748549  0.10010637     0.06160
O1041       O  0.76380270  0.81899489  0.03753606    -0.80060
O1042       O  0.71390517  0.66585171  0.02280767    -0.80090
O1043       O  0.69753576  0.76613862  0.06196409    -0.80100
O1044       O  0.80341432  0.74613989  0.06991774    -0.80040
O1045       O  0.66738959  0.72372906  0.02286630    -0.80160
O1046       O  0.82653767  0.78146881  0.02016270    -0.80080
O1047       O  0.75070756  0.69291284  0.07062776    -0.80020
O1048       O  0.70594320  0.83514134  0.02488444    -0.80100
C1049       C  0.73733852  0.84211212  0.04224179     1.09630
C1050       C  0.72845055  0.66708606  0.06075853     1.09510
C1051       C  0.67006063  0.74398287  0.05687959     1.09650
C1052       C  0.82948557  0.76661694  0.05737679     1.09530
O1053       O  0.79924138  0.75665572  0.93782392    -0.80070
O1054       O  0.69150988  0.74277978  0.93358450    -0.80140
O1055       O  0.73652340  0.81338283  0.95131387    -0.80080
O1056       O  0.77668910  0.66385508  0.98873064    -0.80060
O1057       O  0.74051290  0.68830936  0.93844274    -0.80110
O1058       O  0.79601319  0.82894676  0.96030413    -0.80080
O1059       O  0.82767993  0.71950234  0.98430601    -0.80030
O1060       O  0.67031239  0.78257532  0.97753658    -0.80100
Co1061     Co  0.77834886  0.78504245  0.98595440     1.51530
Co1062     Co  0.70577198  0.70732704  0.97972322     1.51690
Co1063     Co  0.71986243  0.78752099  0.00887490     1.51570
Co1064     Co  0.78719294  0.70772724  0.02789033     1.51470
O1065       O  0.74755075  0.74067285  0.00173630    -1.42000
C1066       C  0.82643603  0.73641554  0.94767789     1.09550
C1067       C  0.66625234  0.76455110  0.94267999     1.09640
C1068       C  0.76491486  0.83396655  0.94176530     1.09580
C1069       C  0.76208125  0.66329043  0.95070923     1.09550
C1070       C  0.53666343  0.74762762  0.15950881     0.03200
C1071       C  0.53533323  0.74724763  0.20510111    -0.12950
C1072       C  0.00134373  0.74962249  0.22600662     0.00700
C1073       C  0.96845567  0.75134932  0.20098994    -0.11470
C1074       C  0.96903361  0.75325898  0.15504471     0.03190
C1075       C  0.00382553  0.75232673  0.13496684    -0.10890
H1076       H  0.56068794  0.74507462  0.22427105     0.08790
H1077       H  0.94247018  0.75144601  0.21778174     0.06320
H1078       H  0.00594219  0.75607474  0.10020868     0.06160
C1079       C  0.75939381  0.96671207  0.84105699     0.03200
C1080       C  0.76424035  0.99918643  0.86529848    -0.12950
C1081       C  0.76498530  0.53356233  0.84434045     0.00700
C1082       C  0.76207938  0.53550607  0.79901472    -0.11470
C1083       C  0.75788654  0.00317594  0.77480316     0.03190
C1084       C  0.75663644  0.96873815  0.79563680    -0.10890
H1085       H  0.76648990  0.99778619  0.90047998     0.08790
H1086       H  0.76271313  0.56216613  0.78265021     0.06320
H1087       H  0.75321927  0.94371092  0.77662396     0.06160
C1088       C  0.52698407  0.75128025  0.84329443     0.03200
C1089       C  0.99404666  0.74634885  0.86648780    -0.12950
C1090       C  0.95980731  0.74039418  0.84463373     0.00700
C1091       C  0.95873183  0.73942175  0.79887093    -0.11470
C1092       C  0.99120282  0.74496742  0.77518607     0.03190
C1093       C  0.52499164  0.75127399  0.79747973    -0.10890
H1094       H  0.99502200  0.74677256  0.90172544     0.08790
H1095       H  0.93253376  0.73536654  0.78165753     0.06320
H1096       H  0.54977306  0.75622984  0.77897881     0.06160
C1097       C  0.76549382  0.63106892  0.92214315    -0.00080
C1098       C  0.73533944  0.62259155  0.89413312    -0.11960
C1099       C  0.73498722  0.59115320  0.86841985     0.02150
C1100       C  0.76544295  0.56759200  0.87003637    -0.00170
C1101       C  0.79593900  0.57601751  0.89738335    -0.11900
C1102       C  0.79627702  0.60769175  0.92336655     0.02040
H1103       H  0.71119731  0.63993742  0.89328774     0.15020
H1104       H  0.81944257  0.55783999  0.89832870     0.15020
C1105       C  0.82869590  0.61597551  0.94994762     0.36670
C1106       C  0.70225531  0.58272102  0.84227339     0.36580
N1107       N  0.85476929  0.62271597  0.97108371    -0.43670
N1108       N  0.67605169  0.57590486  0.82139352    -0.43670
C1109       C  0.76053882  0.86450941  0.91100001    -0.00080
C1110       C  0.73320675  0.89021368  0.91945016    -0.11960
C1111       C  0.73168042  0.92335344  0.89618075     0.02150
C1112       C  0.75759050  0.93068559  0.86341204    -0.00170
C1113       C  0.78340771  0.90382797  0.85309102    -0.11900
C1114       C  0.78521886  0.87086090  0.87687609     0.02040
H1115       H  0.71417726  0.88520341  0.94575173     0.15020
H1116       H  0.80298599  0.90920929  0.82748181     0.15020
C1117       C  0.81220434  0.84389135  0.86545849     0.36670
C1118       C  0.70370123  0.94953270  0.90701035     0.36580
N1119       N  0.83363708  0.82222583  0.85585989    -0.43670
N1120       N  0.68141008  0.97055333  0.91591101    -0.43670
C1121       C  0.86537087  0.76651282  0.08160075    -0.00080
C1122       C  0.89468483  0.74767266  0.06329828    -0.11960
C1123       C  0.92776006  0.74170630  0.08678023     0.02150
C1124       C  0.93350687  0.75746263  0.12871825    -0.00170
C1125       C  0.90396795  0.77714347  0.14638146    -0.11900
C1126       C  0.86981281  0.78031226  0.12411053     0.02040
H1127       H  0.89087328  0.73549651  0.03133554     0.15020
H1128       H  0.90712716  0.78985792  0.17804567     0.15020
C1129       C  0.83957616  0.79730990  0.14583746     0.36670
C1130       C  0.95354880  0.71667245  0.06802026     0.36580
N1131       N  0.81528966  0.81070250  0.16342377    -0.43670
N1132       N  0.97396339  0.69648770  0.05272703    -0.43670
C1133       C  0.57258862  0.74482397  0.13706188    -0.00080
C1134       C  0.59638190  0.77570492  0.13599915    -0.11960
C1135       C  0.62907214  0.77547634  0.11219889     0.02150
C1136       C  0.63860904  0.74383814  0.08805395    -0.00170
C1137       C  0.61520625  0.71231006  0.09071684    -0.11900
C1138       C  0.58274795  0.71248952  0.11520428     0.02040
H1139       H  0.58889047  0.80052715  0.15310115     0.15020
H1140       H  0.62206712  0.68748775  0.07325915     0.15020
C1141       C  0.56049564  0.67904633  0.11800556     0.36670
C1142       C  0.65117291  0.80890606  0.11248534     0.36580
N1143       N  0.54284343  0.65213312  0.12067765    -0.43670
N1144       N  0.66822749  0.83619000  0.11424433    -0.43670
C1145       C  0.85971192  0.73742176  0.91998367    -0.00080
C1146       C  0.86792449  0.70724726  0.89350788    -0.11960
C1147       C  0.90012523  0.70754796  0.86833344     0.02150
C1148       C  0.92497179  0.73825876  0.86987581    -0.00170
C1149       C  0.91675163  0.76809555  0.89655788    -0.11900
C1150       C  0.88471257  0.76803019  0.92129583     0.02040
H1151       H  0.84926277  0.68341168  0.89259473     0.15020
H1152       H  0.93558809  0.79181574  0.89799151     0.15020
C1153       C  0.87907747  0.79980077  0.94831445     0.36670
C1154       C  0.90780172  0.67558994  0.84242124     0.36580
N1155       N  0.87597176  0.82588965  0.96942297    -0.43670
N1156       N  0.91408175  0.64998975  0.82163525    -0.43670
C1157       C  0.63128639  0.76482980  0.91549709    -0.00080
C1158       C  0.62789435  0.74006800  0.88036374    -0.11960
C1159       C  0.59459161  0.73533458  0.85670733     0.02150
C1160       C  0.56339893  0.75627128  0.86702950    -0.00170
C1161       C  0.56682445  0.78166567  0.90148023    -0.11900
C1162       C  0.60010001  0.78601326  0.92570821     0.02040
H1163       H  0.65105719  0.72306218  0.87212315     0.15020
H1164       H  0.54322766  0.79805158  0.90977463     0.15020
C1165       C  0.60091998  0.81181907  0.96136291     0.36670
C1166       C  0.59270901  0.70696650  0.82382426     0.36580
N1167       N  0.60149561  0.83242833  0.99002469    -0.43670
N1168       N  0.59124043  0.68419996  0.79753005    -0.43670
C1169       C  0.73222108  0.57089746  0.14186812    -0.00080
C1170       C  0.70511337  0.57281626  0.10860958    -0.11960
C1171       C  0.70133026  0.60470284  0.08318950     0.02150
C1172       C  0.72469493  0.63571910  0.09157848    -0.00170
C1173       C  0.74939998  0.63468413  0.12761172    -0.11900
C1174       C  0.75381977  0.60252538  0.15216667     0.02040
H1175       H  0.68792296  0.54863797  0.10121904     0.15020
H1176       H  0.76746337  0.65821732  0.13494932     0.15020
C1177       C  0.78306294  0.60183360  0.18490024     0.36670
C1178       C  0.67443441  0.60393403  0.04781675     0.36580
N1179       N  0.80655885  0.60127840  0.21101005    -0.43670
N1180       N  0.65297848  0.60311921  0.01937136    -0.43670
C1181       C  0.74758489  0.93701818  0.12466883    -0.00080
C1182       C  0.77897480  0.91628885  0.11709000    -0.11960
C1183       C  0.77703930  0.88617513  0.08874990     0.02150
C1184       C  0.74260604  0.87555876  0.06929472    -0.00170
C1185       C  0.71185346  0.89792288  0.07543360    -0.11900
C1186       C  0.71395821  0.92812306  0.10310116     0.02040
H1187       H  0.80519626  0.92435786  0.13234554     0.15020
H1188       H  0.68564829  0.89157275  0.05912419     0.15020
C1189       C  0.68101326  0.94925298  0.10943443     0.36670
C1190       C  0.81127598  0.86904953  0.07784850     0.36580
N1191       N  0.65472944  0.96629707  0.11449195    -0.43670
N1192       N  0.83913754  0.85637719  0.06863427    -0.43670
C1193       C  0.98561794  0.88021455  0.58245029    -0.00080
C1194       C  0.95903541  0.87414924  0.61445764    -0.11960
C1195       C  0.95835262  0.84120358  0.63925971     0.02150
C1196       C  0.98477007  0.81351501  0.63226548    -0.00170
C1197       C  0.51127521  0.81988455  0.60022685    -0.11900
C1198       C  0.51204318  0.85266692  0.57568659     0.02040
H1199       H  0.93895058  0.89528342  0.62036759     0.15020
H1200       H  0.53205578  0.79928731  0.59477963     0.15020
C1201       C  0.54080841  0.85716693  0.54417084     0.36670
C1202       C  0.92969347  0.83619118  0.67080482     0.36580
N1203       N  0.56437751  0.85975188  0.51940610    -0.43670
N1204       N  0.90676295  0.83225440  0.69618771    -0.43670
C1205       C  0.01025449  0.61041837  0.58368885    -0.00080
C1206       C  0.98459350  0.61067582  0.61760255    -0.11960
C1207       C  0.97914753  0.64249914  0.64260516     0.02150
C1208       C  0.99996109  0.67525700  0.63460250    -0.00170
C1209       C  0.52636913  0.67477520  0.60175206    -0.11900
C1210       C  0.53162177  0.64316422  0.57641078     0.02040
H1211       H  0.96744867  0.58631847  0.62364570     0.15020
H1212       H  0.54284293  0.69955793  0.59545359     0.15020
C1213       C  0.55852456  0.64595253  0.54246910     0.36670
C1214       C  0.95033744  0.64137395  0.67440071     0.36580
N1215       N  0.57992773  0.64850467  0.51511959    -0.43670
N1216       N  0.92723307  0.64049415  0.69986643    -0.43670
C1217       C  0.00512748  0.88762781  0.41407378    -0.00080
C1218       C  0.53844276  0.87279800  0.39982013    -0.11960
C1219       C  0.53864631  0.83999422  0.37528101     0.02150
C1220       C  0.00516973  0.82088354  0.36544678    -0.00170
C1221       C  0.97202545  0.83570916  0.37926194    -0.11900
C1222       C  0.97161397  0.86860001  0.40314884     0.02040
H1223       H  0.56442774  0.88664354  0.40833713     0.15020
H1224       H  0.94621514  0.82097368  0.37202060     0.15020
C1225       C  0.93629097  0.87999277  0.41848374     0.36670
C1226       C  0.57348877  0.82588998  0.36147841     0.36580
N1227       N  0.90709707  0.88720633  0.42998034    -0.43670
N1228       N  0.60139909  0.81455782  0.35028907    -0.43670
C1229       C  0.98693840  0.68194519  0.36801080    -0.00080
C1230       C  0.50613794  0.65099224  0.35389244    -0.11960
C1231       C  0.50378239  0.61684741  0.37552809     0.02150
C1232       C  0.98265810  0.61290089  0.41376430    -0.00170
C1233       C  0.96255954  0.64356641  0.42733455    -0.11900
C1234       C  0.96409390  0.67756814  0.40468066     0.02040
H1235       H  0.52374759  0.65352487  0.32589665     0.15020
H1236       H  0.94574352  0.64115449  0.45601140     0.15020
C1237       C  0.94099847  0.70698027  0.41912427     0.36670
C1238       C  0.52367579  0.58661534  0.35717093     0.36580
N1239       N  0.92242832  0.73049504  0.43077926    -0.43670
N1240       N  0.53951613  0.56251999  0.34206073    -0.43670
C1241       C  0.61970352  0.52058486  0.58419607    -0.00080
C1242       C  0.62252349  0.99552869  0.61936716    -0.11960
C1243       C  0.65460303  0.99341091  0.64494253     0.02150
C1244       C  0.68456922  0.01774941  0.63683138    -0.00170
C1245       C  0.68124457  0.54426001  0.60339753    -0.11900
C1246       C  0.64934637  0.54572223  0.57686644     0.02040
H1247       H  0.60032432  0.97575462  0.62570060     0.15020
H1248       H  0.70412360  0.56329432  0.59726040     0.15020
C1249       C  0.64849495  0.57258051  0.54196214     0.36670
C1250       C  0.65690830  0.96391881  0.67680645     0.36580
N1251       N  0.64815659  0.59408654  0.51393518    -0.43670
N1252       N  0.65868733  0.94022370  0.70220367    -0.43670
C1253       C  0.88458804  0.00997337  0.58427173    -0.00080
C1254       C  0.87112239  0.54271381  0.60184907    -0.11960
C1255       C  0.83945962  0.54205838  0.62682355     0.02150
C1256       C  0.82113665  0.00819028  0.63490366    -0.00170
C1257       C  0.83495150  0.97529219  0.61879112    -0.11900
C1258       C  0.86640074  0.97585356  0.59324746     0.02040
H1259       H  0.88480178  0.56904540  0.59512841     0.15020
H1260       H  0.82039859  0.94933230  0.62503506     0.15020
C1261       C  0.87733987  0.94149403  0.57410680     0.36670
C1262       C  0.82548772  0.57648451  0.64272819     0.36580
N1263       N  0.88556336  0.91383818  0.55862532    -0.43670
N1264       N  0.81405151  0.60396875  0.65541128    -0.43670
C1265       C  0.67790984  0.98425346  0.36150566    -0.00080
C1266       C  0.66078696  0.51741561  0.37083959    -0.11960
C1267       C  0.63031957  0.51761551  0.39768589     0.02150
C1268       C  0.61645163  0.48392282  0.41518853    -0.00170
C1269       C  0.63352889  0.95064799  0.40559353    -0.11900
C1270       C  0.66412489  0.95059283  0.37861128     0.02040
H1271       H  0.67216224  0.54331122  0.35844214     0.15020
H1272       H  0.62295680  0.92484222  0.41906823     0.15020
C1273       C  0.68108113  0.91589049  0.36888760     0.36670
C1274       C  0.61544374  0.55302060  0.40908293     0.36580
N1275       N  0.69463996  0.88810981  0.36083579    -0.43670
N1276       N  0.60363717  0.58134231  0.41840558    -0.43670
C1277       C  0.87877869  0.98223119  0.42090759    -0.00080
C1278       C  0.84939312  0.95742122  0.42895103    -0.11960
C1279       C  0.81772754  0.95683913  0.40267388     0.02150
C1280       C  0.81430799  0.98243469  0.36803233    -0.00170
C1281       C  0.84393870  0.50682612  0.35922447    -0.11900
C1282       C  0.87624889  0.50668506  0.38502348     0.02040
H1283       H  0.85091622  0.93832148  0.45625951     0.15020
H1284       H  0.84167723  0.52637755  0.33245107     0.15020
C1285       C  0.90644214  0.53098042  0.37284935     0.36670
C1286       C  0.78963566  0.92910192  0.41187546     0.36580
N1287       N  0.93049226  0.55032377  0.36225318    -0.43670
N1288       N  0.76723193  0.90694811  0.41977745    -0.43670
loop_ 
_geom_bond_atom_site_label_1 
_geom_bond_atom_site_label_2 
_geom_bond_distance 
_geom_bond_site_symmetry_2 
_ccdc_geom_bond_type 
O1            C9   1.263       .  A
O1          Co21   1.866       .  S
O2           C10   1.250   1_545  A
O2          Co22   1.939       .  S
O3           C11   1.264       .  A
O3          Co23   2.031       .  S
O4           C12   1.278       .  A
O4          Co24   2.033       .  S
O5          C655   1.252   1_455  A
O5          Co22   1.967       .  S
O6          C656   1.271       .  A
O6          Co21   1.984       .  S
O7          C332   1.270       .  A
O7          Co24   2.022       .  S
O8          C331   1.294   1_545  A
O8          Co23   2.094       .  S
C9          O330   1.294       .  A
C9          C311   1.472       .  S
C10         O329   1.270       .  A
C10         C302   1.463       .  S
C11         O649   1.252       .  A
C11         C266   1.502       .  S
C12         O650   1.271   1_455  A
C12         C895   1.495       .  S
O13         C670   1.261       .  A
O13         Co21   2.021       .  S
O14         C671   1.278       .  A
O14         Co22   2.035       .  S
O15         C350   1.267       .  A
O15         Co23   1.877       .  S
O16         C351   1.257       .  A
O16         Co24   1.943       .  S
O17          C29   1.274       .  A
O17         Co22   2.031       .  S
O18          C28   1.295       .  A
O18         Co21   2.086       .  S
O19          C26   1.254   1_455  A
O19         Co24   1.979       .  S
O20          C27   1.269       .  A
O20         Co23   1.979       .  S
Co21         O25   2.001       .  S
Co22        O991   2.025   1_545  S
Co23        O347   2.011   1_545  S
Co24        O669   2.035       .  S
O25        Co988   2.025       .  S
O25        Co345   2.011       .  S
O25        Co668   2.035       .  S
C26         O657   1.261       .  A
C26         C871   1.487       .  S
C27         O658   1.278       .  A
C27         C239   1.506       .  S
C28         O337   1.267       .  A
C28         C287   1.469       .  S
C29         O338   1.257   1_545  A
C29         C275   1.484       .  S
C30         C263   1.505       .  S
C30          C31   1.412       .  A
C30          C35   1.412       .  A
C31          C32   1.409       .  A
C31          H36   1.082       .  S
C32         C254   1.490       .  S
C32          C33   1.405       .  A
C33          C34   1.405       .  A
C33          H37   1.084       .  S
C34         C106   1.483       .  S
C34          C35   1.404       .  A
C35          H38   1.084       .  S
C39         C314   1.477       .  S
C39          C40   1.402       .  A
C39         C366   1.400       .  A
C40          C41   1.400       .  A
C40          H45   1.084       .  S
C41          C68   1.457       .  S
C41          C42   1.398       .  A
C42          C43   1.394       .  A
C42          H46   1.084       .  S
C43         C299   1.461       .  S
C43         C366   1.392       .  A
C44         C361   1.400       .  A
C44         C365   1.392       .  A
C44          H47   1.084       .  S
C48         C290   1.459       .  S
C48          C53   1.392       .  A
C48         C371   1.397       .  A
C49         C370   1.397       .  A
C49         C372   1.402       .  A
C49          H54   1.084       .  S
C50         C278   1.479       .  S
C50          C51   1.404       .  A
C50         C371   1.402       .  A
C51          C52   1.399       .  A
C51          H55   1.084       .  S
C52         C117   1.455       .  S
C52          C53   1.393       .  A
C53          H56   1.085       .  S
C57         C242   1.502       .  S
C57          C58   1.409       .  A
C57          C62   1.410       .  A
C58          C59   1.406       .  A
C58          H63   1.084       .  S
C59         C126   1.482       .  S
C59          C60   1.406       .  A
C60          C61   1.408       .  A
C60          H64   1.083       .  S
C61         C230   1.501       .  S
C61          C62   1.411       .  A
C62          H65   1.084       .  S
C66         C215   1.463       .  S
C66          C67   1.397       .  A
C66          C71   1.395       .  A
C67          C68   1.398       .  A
C67          H72   1.084       .  S
C68         C391   1.399       .  A
C69          C70   1.399       .  A
C69         C390   1.399   1_545  A
C69          H73   1.084       .  S
C70         C203   1.473       .  S
C70         C393   1.397       .  A
C71         C392   1.397       .  A
C71          H74   1.085       .  S
O75          C83   1.294       .  A
O75         Co95   2.094   1_554  S
O76          C84   1.271       .  A
O76         Co96   2.017   1_554  S
O77          C85   1.272       .  A
O77         Co97   1.983       .  S
O78          C86   1.254       .  A
O78         Co98   1.976       .  S
O79          C85   1.282       .  A
O79         Co96   2.040   1_554  S
O80          C86   1.264       .  A
O80         Co95   2.023   1_554  S
O81          C84   1.256       .  A
O81         Co98   1.948       .  S
O82          C83   1.267       .  A
O82         Co97   1.875       .  S
C83         C218   1.479       .  S
C84         C206   1.479       .  S
C85         C170   1.503       .  S
C86         C155   1.483       .  S
O87         C100   1.268       .  A
O87         Co95   1.978       .  S
O88         C101   1.255       .  A
O88         Co96   1.973       .  S
O89         C102   1.295       .  A
O89         Co97   2.091   1_556  S
O90         C103   1.273       .  A
O90         Co98   2.023   1_556  S
O91         C103   1.257       .  A
O91         Co96   1.944       .  S
O92         C102   1.266       .  A
O92         Co95   1.875       .  S
O93         C100   1.279       .  A
O93         Co98   2.043   1_556  S
O94         C101   1.263       .  A
O94         Co97   2.023   1_556  S
Co95         O99   1.999   1_556  S
Co96         O99   2.024   1_556  S
Co97         O99   2.001       .  S
Co98         O99   2.032       .  S
C100        C179   1.489       .  S
C101        C191   1.502       .  S
C102        C143   1.458       .  S
C103        C131   1.472       .  S
C104        C167   1.490       .  S
C104        C105   1.404       .  A
C104        C753   1.407       .  A
C105        C750   1.404       .  A
C105        H110   1.084       .  S
C106        C107   1.406       .  A
C106        C749   1.404       .  A
C107        C108   1.415       .  A
C107        H111   1.082       .  S
C108        C158   1.514       .  S
C108        C109   1.415       .  A
C109        C748   1.407       .  A
C109        H112   1.081       .  S
C113        C146   1.470       .  S
C113        C114   1.401       .  A
C113        C118   1.400       .  A
C114        C437   1.397       .  A
C114        H119   1.084       .  S
C115        C134   1.466       .  S
C115        C116   1.397       .  A
C115        C436   1.397   1_545  A
C116        C439   1.394       .  A
C116        H120   1.085       .  S
C117        C118   1.397       .  A
C117        C438   1.394       .  A
C118        H121   1.084       .  S
C122        C194   1.501       .  S
C122        C127   1.409       .  A
C122        C767   1.410   1_455  A
C123        C124   1.411       .  A
C123        C766   1.410       .  A
C123        H128   1.084       .  S
C124        C182   1.495       .  S
C124        C125   1.408       .  A
C125        C126   1.406       .  A
C125        H129   1.084       .  S
C126        C771   1.405       .  A
C127        C770   1.405   1_455  A
C127        H130   1.084       .  S
C131        C132   1.406       .  A
C131        C136   1.411       .  A
C132        C133   1.389       .  A
C132        H137   1.085       .  S
C133        C134   1.406       .  A
C133        C140   1.446       .  S
C134        C135   1.403       .  A
C135        C136   1.401       .  A
C135        H138   1.085       .  S
C136        C139   1.443       .  S
C139        N141   1.157       .  T
C140        N142   1.157       .  T
C143        C144   1.400       .  A
C143        C148   1.407       .  A
C144        C145   1.393       .  A
C144        H149   1.085       .  S
C145        C146   1.411       .  A
C145        C152   1.445       .  S
C146        C147   1.403       .  A
C147        C148   1.397       .  A
C147        H150   1.085       .  S
C148        C151   1.444       .  S
C151        N153   1.157       .  T
C152        N154   1.157       .  T
C155        C156   1.402       .  A
C155        C160   1.407       .  A
C156        C157   1.404       .  A
C156        H161   1.085       .  S
C157        C158   1.423       .  A
C157        C164   1.444       .  S
C158        C159   1.415       .  A
C159        C160   1.407       .  A
C159        H162   1.082       .  S
C160        C163   1.444       .  S
C163        N165   1.157       .  T
C164        N166   1.158       .  T
C167        C168   1.397       .  A
C167        C172   1.411       .  A
C168        C169   1.404       .  A
C168        H173   1.085       .  S
C169        C170   1.420       .  A
C169        C176   1.437       .  S
C170        C171   1.410       .  A
C171        C172   1.409       .  A
C171        H174   1.085       .  S
C172        C175   1.443       .  S
C175        N177   1.157       .  T
C176        N178   1.155       .  T
C179        C180   1.406       .  A
C179        C184   1.416       .  A
C180        C181   1.412       .  A
C180        H185   1.085       .  S
C181        C182   1.416       .  A
C181        C188   1.443       .  S
C182        C183   1.400       .  A
C183        C184   1.400       .  A
C183        H186   1.086       .  S
C184        C187   1.442       .  S
C187        N189   1.157       .  T
C188        N190   1.157       .  T
C191        C192   1.410       .  A
C191        C196   1.418       .  A
C192        C193   1.403       .  A
C192        H197   1.084       .  S
C193        C194   1.414       .  A
C193        C200   1.445       .  S
C194        C195   1.408       .  A
C195        C196   1.409       .  A
C195        H198   1.085       .  S
C196        C199   1.444       .  S
C199        N201   1.158       .  T
C200        N202   1.157       .  T
C203        C204   1.404       .  A
C203        C208   1.407       .  A
C204        C205   1.396       .  A
C204        H209   1.086       .  S
C205        C206   1.413       .  A
C205        C212   1.444       .  S
C206        C207   1.410       .  A
C207        C208   1.392       .  A
C207        H210   1.085       .  S
C208        C211   1.445       .  S
C211        N213   1.157       .  T
C212        N214   1.157       .  T
C215        C216   1.398       .  A
C215        C220   1.406       .  A
C216        C217   1.399       .  A
C216        H221   1.085       .  S
C217        C218   1.418       .  A
C217        C224   1.443       .  S
C218        C219   1.405       .  A
C219        C220   1.389       .  A
C219        H222   1.085       .  S
C220        C223   1.446       .  S
C223        N225   1.157       .  T
C224        N226   1.157       .  T
C227        C670   1.487       .  S
C227        C228   1.404       .  A
C227        C876   1.414       .  A
C228        C229   1.411       .  A
C228        H233   1.084       .  S
C229        C230   1.418       .  A
C229        C236   1.443       .  S
C230        C875   1.404       .  A
C231        C232   1.401       .  A
C231        C874   1.404   1_455  A
C231        H234   1.085       .  S
C232        C871   1.414   1_455  A
C232        C235   1.443       .  S
C235        N237   1.157       .  T
C236        N238   1.157       .  T
C239        C240   1.411       .  A
C239        C888   1.421       .  A
C240        C241   1.408       .  A
C240        H245   1.085       .  S
C241        C242   1.414       .  A
C241        C248   1.444       .  S
C242        C887   1.406       .  A
C243        C244   1.406       .  A
C243        C886   1.406   1_455  A
C243        H246   1.085       .  S
C244        C883   1.421       .  A
C244        C247   1.444       .  S
C247        N249   1.157       .  T
C248        N250   1.157       .  T
C251        C656   1.495       .  S
C251        C256   1.418       .  A
C251        C896   1.408       .  A
C252        C253   1.410       .  A
C252        C895   1.408       .  A
C252        H257   1.085       .  S
C253        C898   1.411       .  A
C253        C260   1.442       .  S
C254        C255   1.399       .  A
C254        C897   1.411       .  A
C255        C256   1.403       .  A
C255        H258   1.086       .  S
C256        C259   1.440       .  S
C259        N261   1.156       .  T
C260        N262   1.157       .  T
C263        C268   1.418       .  A
C263        C908   1.405       .  A
C264        C265   1.401       .  A
C264        C907   1.405   1_455  A
C264        H269   1.084       .  S
C265        C910   1.421   1_455  A
C265        C272   1.445       .  S
C266        C267   1.408       .  A
C266        C909   1.421       .  A
C267        C268   1.410       .  A
C267        H270   1.084       .  S
C268        C271   1.443       .  S
C271        N273   1.157       .  T
C272        N274   1.157       .  T
C275        C280   1.413       .  A
C275        C598   1.410   1_545  A
C276        C277   1.391       .  A
C276        C597   1.410       .  A
C276        H281   1.085       .  S
C277        C278   1.409       .  A
C277        C284   1.446       .  S
C278        C601   1.406       .  A
C279        C280   1.401       .  A
C279        C600   1.406       .  A
C279        H282   1.085       .  S
C280        C283   1.443       .  S
C283        N285   1.157       .  T
C284        N286   1.157       .  T
C287        C292   1.415       .  A
C287        C610   1.405       .  A
C288        C289   1.393       .  A
C288        C609   1.405       .  A
C288        H293   1.085       .  S
C289        C612   1.405       .  A
C289        C296   1.445       .  S
C290        C291   1.397       .  A
C290        C611   1.405       .  A
C291        C292   1.396       .  A
C291        H294   1.085       .  S
C292        C295   1.444       .  S
C295        N297   1.157       .  T
C296        N298   1.157       .  T
C299        C304   1.409       .  A
C299        C622   1.395       .  A
C300        C301   1.391       .  A
C300        C621   1.395   1_545  A
C300        H305   1.086       .  S
C301        C302   1.416   1_545  A
C301        C308   1.447       .  S
C302        C625   1.399       .  A
C303        C304   1.398       .  A
C303        C624   1.399       .  A
C303        H306   1.085       .  S
C304        C307   1.443       .  S
C307        N309   1.157       .  T
C308        N310   1.157       .  T
C311        C312   1.403       .  A
C311        C638   1.412       .  A
C312        C313   1.388       .  A
C312        H317   1.085       .  S
C313        C314   1.412       .  A
C313        C320   1.445       .  S
C314        C637   1.405       .  A
C315        C316   1.399       .  A
C315        C636   1.405   1_545  A
C315        H318   1.085       .  S
C316        C633   1.412   1_545  A
C316        C319   1.443       .  S
C319        N321   1.157       .  T
C320        N322   1.157       .  T
O323        C331   1.263       .  A
O323       Co343   1.866       .  S
O324        C332   1.250       .  A
O324       Co344   1.939       .  S
O325        C333   1.264       .  A
O325       Co345   2.031       .  S
O326        C334   1.278       .  A
O326       Co346   2.033       .  S
O327        C977   1.252   1_455  A
O327       Co344   1.967       .  S
O328        C978   1.271       .  A
O328       Co343   1.984       .  S
O329       Co346   2.022       .  S
O330       Co345   2.094       .  S
C331        C633   1.472       .  S
C332        C624   1.463       .  S
C333        O971   1.252       .  A
C333        C588   1.502       .  S
C334        O972   1.271   1_455  A
C334       C1217   1.495       .  S
O335        C992   1.261       .  A
O335       Co343   2.021       .  S
O336        C993   1.278       .  A
O336       Co344   2.035       .  S
O337       Co345   1.877       .  S
O338       Co346   1.943       .  S
O339        C351   1.274       .  A
O339       Co344   2.031       .  S
O340        C350   1.295   1_565  A
O340       Co343   2.086       .  S
O341        C348   1.254   1_455  A
O341       Co346   1.979       .  S
O342        C349   1.269       .  A
O342       Co345   1.979       .  S
Co343       O347   2.001       .  S
Co344       O669   2.025       .  S
Co346       O991   2.035       .  S
O347       Co666   2.025   1_565  S
O347       Co990   2.035       .  S
C348        O979   1.261       .  A
C348       C1193   1.487       .  S
C349        O980   1.278       .  A
C349        C561   1.506       .  S
C350        C609   1.469       .  S
C351        C597   1.484       .  S
C352        C585   1.505       .  S
C352        C353   1.412       .  A
C352        C357   1.412       .  A
C353        C354   1.409       .  A
C353        H358   1.082       .  S
C354        C576   1.490       .  S
C354        C355   1.405       .  A
C355        C356   1.405       .  A
C355        H359   1.084       .  S
C356        C428   1.483       .  S
C356        C357   1.404       .  A
C357        H360   1.084       .  S
C361        C636   1.477       .  S
C361        C362   1.402       .  A
C362        C363   1.400       .  A
C362        H367   1.084       .  S
C363        C390   1.457       .  S
C363        C364   1.398       .  A
C364        C365   1.394       .  A
C364        H368   1.084       .  S
C365        C621   1.461       .  S
C366        H369   1.084       .  S
C370        C612   1.459       .  S
C370        C375   1.392       .  A
C371        H376   1.084       .  S
C372        C600   1.479       .  S
C372        C373   1.404       .  A
C373        C374   1.399       .  A
C373        H377   1.084       .  S
C374        C439   1.455       .  S
C374        C375   1.393       .  A
C375        H378   1.085   1_545  S
C379        C564   1.502       .  S
C379        C380   1.409       .  A
C379        C384   1.410       .  A
C380        C381   1.406       .  A
C380        H385   1.084       .  S
C381        C448   1.482       .  S
C381        C382   1.406       .  A
C382        C383   1.408       .  A
C382        H386   1.083       .  S
C383        C552   1.501       .  S
C383        C384   1.411       .  A
C384        H387   1.084       .  S
C388        C537   1.463       .  S
C388        C389   1.397       .  A
C388        C393   1.395   1_565  A
C389        C390   1.398       .  A
C389        H394   1.084       .  S
C391        C392   1.399       .  A
C391        H395   1.084       .  S
C392        C525   1.473       .  S
C393        H396   1.085       .  S
O397        C405   1.294       .  A
O397       Co417   2.094   1_554  S
O398        C406   1.271       .  A
O398       Co418   2.017   1_554  S
O399        C407   1.272       .  A
O399       Co419   1.983       .  S
O400        C408   1.254       .  A
O400       Co420   1.976       .  S
O401        C407   1.282       .  A
O401       Co418   2.040   1_554  S
O402        C408   1.264       .  A
O402       Co417   2.023   1_554  S
O403        C406   1.256       .  A
O403       Co420   1.948       .  S
O404        C405   1.267       .  A
O404       Co419   1.875       .  S
C405        C540   1.479       .  S
C406        C528   1.479       .  S
C407        C492   1.503       .  S
C408        C477   1.483       .  S
O409        C422   1.268       .  A
O409       Co417   1.978       .  S
O410        C423   1.255       .  A
O410       Co418   1.973       .  S
O411        C424   1.295       .  A
O411       Co419   2.091   1_556  S
O412        C425   1.273       .  A
O412       Co420   2.023   1_556  S
O413        C425   1.257       .  A
O413       Co418   1.944       .  S
O414        C424   1.266       .  A
O414       Co417   1.875       .  S
O415        C422   1.279       .  A
O415       Co420   2.043   1_556  S
O416        C423   1.263       .  A
O416       Co419   2.023   1_556  S
Co417       O421   1.999   1_556  S
Co418       O421   2.024   1_556  S
Co419       O421   2.001       .  S
Co420       O421   2.032       .  S
C422        C501   1.489       .  S
C423        C513   1.502       .  S
C424        C465   1.458       .  S
C425        C453   1.472       .  S
C426        C489   1.490       .  S
C426        C427   1.404       .  A
C426       C1075   1.407       .  A
C427       C1072   1.404       .  A
C427        H432   1.084       .  S
C428       C1071   1.404       .  A
C428        C429   1.406       .  A
C429        C430   1.415       .  A
C429        H433   1.082       .  S
C430        C480   1.514       .  S
C430        C431   1.415       .  A
C431       C1070   1.407       .  A
C431        H434   1.081       .  S
C435        C468   1.470       .  S
C435        C436   1.401       .  A
C435        C440   1.400       .  A
C436        H441   1.084       .  S
C437        C456   1.466       .  S
C437        C438   1.397       .  A
C438        H442   1.085       .  S
C439        C440   1.397   1_545  A
C440        H443   1.084       .  S
C444        C516   1.501       .  S
C444       C1089   1.410   1_455  A
C444        C449   1.409       .  A
C445       C1088   1.410       .  A
C445        C446   1.411       .  A
C445        H450   1.084       .  S
C446        C504   1.495       .  S
C446        C447   1.408       .  A
C447        C448   1.406       .  A
C447        H451   1.084       .  S
C448       C1093   1.405       .  A
C449       C1092   1.405   1_455  A
C449        H452   1.084       .  S
C453        C454   1.406       .  A
C453        C458   1.411       .  A
C454        C455   1.389       .  A
C454        H459   1.085       .  S
C455        C456   1.406       .  A
C455        C462   1.446       .  S
C456        C457   1.403       .  A
C457        C458   1.401       .  A
C457        H460   1.085       .  S
C458        C461   1.443       .  S
C461        N463   1.157       .  T
C462        N464   1.157       .  T
C465        C466   1.400       .  A
C465        C470   1.407       .  A
C466        C467   1.393       .  A
C466        H471   1.085       .  S
C467        C468   1.411       .  A
C467        C474   1.445       .  S
C468        C469   1.403       .  A
C469        C470   1.397       .  A
C469        H472   1.085       .  S
C470        C473   1.444       .  S
C473        N475   1.157       .  T
C474        N476   1.157       .  T
C477        C478   1.402       .  A
C477        C482   1.407       .  A
C478        C479   1.404       .  A
C478        H483   1.085       .  S
C479        C480   1.423       .  A
C479        C486   1.444       .  S
C480        C481   1.415       .  A
C481        C482   1.407       .  A
C481        H484   1.082       .  S
C482        C485   1.444       .  S
C485        N487   1.157       .  T
C486        N488   1.158       .  T
C489        C490   1.397       .  A
C489        C494   1.411       .  A
C490        C491   1.404       .  A
C490        H495   1.085       .  S
C491        C492   1.420       .  A
C491        C498   1.437       .  S
C492        C493   1.410       .  A
C493        C494   1.409       .  A
C493        H496   1.085       .  S
C494        C497   1.443       .  S
C497        N499   1.157       .  T
C498        N500   1.155       .  T
C501        C502   1.406       .  A
C501        C506   1.416       .  A
C502        C503   1.412       .  A
C502        H507   1.085       .  S
C503        C504   1.416       .  A
C503        C510   1.443       .  S
C504        C505   1.400       .  A
C505        C506   1.400       .  A
C505        H508   1.086       .  S
C506        C509   1.442       .  S
C509        N511   1.157       .  T
C510        N512   1.157       .  T
C513        C514   1.410       .  A
C513        C518   1.418       .  A
C514        C515   1.403       .  A
C514        H519   1.084       .  S
C515        C516   1.414       .  A
C515        C522   1.445       .  S
C516        C517   1.408       .  A
C517        C518   1.409       .  A
C517        H520   1.085       .  S
C518        C521   1.444       .  S
C521        N523   1.158       .  T
C522        N524   1.157       .  T
C525        C526   1.404       .  A
C525        C530   1.407       .  A
C526        C527   1.396       .  A
C526        H531   1.086       .  S
C527        C528   1.413       .  A
C527        C534   1.444       .  S
C528        C529   1.410       .  A
C529        C530   1.392       .  A
C529        H532   1.085       .  S
C530        C533   1.445       .  S
C533        N535   1.157       .  T
C534        N536   1.157       .  T
C537        C538   1.398       .  A
C537        C542   1.406       .  A
C538        C539   1.399       .  A
C538        H543   1.085       .  S
C539        C540   1.418       .  A
C539        C546   1.443       .  S
C540        C541   1.405       .  A
C541        C542   1.389       .  A
C541        H544   1.085       .  S
C542        C545   1.446       .  S
C545        N547   1.157       .  T
C546        N548   1.157       .  T
C549        C992   1.487       .  S
C549        C550   1.404       .  A
C549       C1198   1.414       .  A
C550        C551   1.411       .  A
C550        H555   1.084       .  S
C551        C552   1.418       .  A
C551        C558   1.443       .  S
C552       C1197   1.404       .  A
C553       C1196   1.404   1_455  A
C553        C554   1.401       .  A
C553        H556   1.085       .  S
C554       C1193   1.414   1_455  A
C554        C557   1.443       .  S
C557        N559   1.157       .  T
C558        N560   1.157       .  T
C561        C562   1.411       .  A
C561       C1210   1.421       .  A
C562        C563   1.408       .  A
C562        H567   1.085       .  S
C563        C564   1.414       .  A
C563        C570   1.444       .  S
C564       C1209   1.406       .  A
C565       C1208   1.406   1_455  A
C565        C566   1.406       .  A
C565        H568   1.085       .  S
C566       C1205   1.421       .  A
C566        C569   1.444       .  S
C569        N571   1.157       .  T
C570        N572   1.157       .  T
C573        C978   1.495       .  S
C573       C1218   1.408       .  A
C573        C578   1.418       .  A
C574       C1217   1.408       .  A
C574        C575   1.410       .  A
C574        H579   1.085       .  S
C575       C1220   1.411       .  A
C575        C582   1.442       .  S
C576       C1219   1.411       .  A
C576        C577   1.399       .  A
C577        C578   1.403       .  A
C577        H580   1.086       .  S
C578        C581   1.440       .  S
C581        N583   1.156       .  T
C582        N584   1.157       .  T
C585       C1230   1.405       .  A
C585        C590   1.418       .  A
C586       C1229   1.405   1_455  A
C586        C587   1.401       .  A
C586        H591   1.084       .  S
C587       C1232   1.421   1_455  A
C587        C594   1.445       .  S
C588       C1231   1.421       .  A
C588        C589   1.408       .  A
C589        C590   1.410       .  A
C589        H592   1.084       .  S
C590        C593   1.443       .  S
C593        N595   1.157       .  T
C594        N596   1.157       .  T
C597        C602   1.413       .  A
C598        C599   1.391       .  A
C598        H603   1.085       .  S
C599        C600   1.409   1_565  A
C599        C606   1.446       .  S
C601        C602   1.401       .  A
C601        H604   1.085       .  S
C602        C605   1.443       .  S
C605        N607   1.157       .  T
C606        N608   1.157       .  T
C609        C614   1.415   1_545  A
C610        C611   1.393       .  A
C610        H615   1.085       .  S
C611        C618   1.445       .  S
C612        C613   1.397   1_545  A
C613        C614   1.396       .  A
C613        H616   1.085       .  S
C614        C617   1.444       .  S
C617        N619   1.157       .  T
C618        N620   1.157       .  T
C621        C626   1.409       .  A
C622        C623   1.391       .  A
C622        H627   1.086       .  S
C623        C624   1.416       .  A
C623        C630   1.447       .  S
C625        C626   1.398       .  A
C625        H628   1.085       .  S
C626        C629   1.443       .  S
C629        N631   1.157       .  T
C630        N632   1.157       .  T
C633        C634   1.403       .  A
C634        C635   1.388       .  A
C634        H639   1.085       .  S
C635        C636   1.412       .  A
C635        C642   1.445       .  S
C637        C638   1.399       .  A
C637        H640   1.085       .  S
C638        C641   1.443       .  S
C641        N643   1.157       .  T
C642        N644   1.157       .  T
O645        C653   1.263       .  A
O645       Co665   1.866       .  S
O646        C654   1.250   1_545  A
O646       Co666   1.939       .  S
O647        C655   1.264       .  A
O647       Co667   2.031       .  S
O648        C656   1.278       .  A
O648       Co668   2.033       .  S
O649       Co666   1.967       .  S
O650       Co665   1.984       .  S
O651        C976   1.270       .  A
O651       Co668   2.022       .  S
O652        C975   1.294   1_545  A
O652       Co667   2.094       .  S
C653        O974   1.294       .  A
C653        C955   1.472       .  S
C654        O973   1.270       .  A
C654        C946   1.463       .  S
C655        C910   1.502       .  S
O657       Co665   2.021       .  S
O658       Co666   2.035       .  S
O659        C994   1.267       .  A
O659       Co667   1.877       .  S
O660        C995   1.257       .  A
O660       Co668   1.943       .  S
O661        C673   1.274       .  A
O661       Co666   2.031       .  S
O662        C672   1.295       .  A
O662       Co665   2.086       .  S
O663        C670   1.254       .  A
O663       Co668   1.979       .  S
O664        C671   1.269   1_655  A
O664       Co667   1.979       .  S
Co665       O669   2.001   1_655  S
Co667       O991   2.011   1_645  S
O669       Co989   2.011   1_455  S
C671        C883   1.506       .  S
C672        O981   1.267       .  A
C672        C931   1.469       .  S
C673        O982   1.257   1_545  A
C673        C919   1.484       .  S
C674        C907   1.505       .  S
C674        C675   1.412       .  A
C674        C679   1.412       .  A
C675        C676   1.409   1_655  A
C675        H680   1.082       .  S
C676        C898   1.490       .  S
C676        C677   1.405       .  A
C677        C678   1.405       .  A
C677        H681   1.084       .  S
C678        C750   1.483       .  S
C678        C679   1.404   1_455  A
C679        H682   1.084       .  S
C683        C958   1.477       .  S
C683        C684   1.402       .  A
C683       C1010   1.400       .  A
C684        C685   1.400       .  A
C684        H689   1.084       .  S
C685        C712   1.457       .  S
C685        C686   1.398       .  A
C686        C687   1.394       .  A
C686        H690   1.084       .  S
C687        C943   1.461       .  S
C687       C1010   1.392       .  A
C688       C1005   1.400       .  A
C688       C1009   1.392       .  A
C688        H691   1.084       .  S
C692        C934   1.459       .  S
C692       C1015   1.397       .  A
C692        C697   1.392       .  A
C693       C1014   1.397       .  A
C693       C1016   1.402       .  A
C693        H698   1.084       .  S
C694        C922   1.479       .  S
C694       C1015   1.402       .  A
C694        C695   1.404       .  A
C695        C696   1.399       .  A
C695        H699   1.084       .  S
C696        C761   1.455       .  S
C696        C697   1.393       .  A
C697        H700   1.085       .  S
C701        C886   1.502       .  S
C701        C702   1.409       .  A
C701        C706   1.410       .  A
C702        C703   1.406       .  A
C702        H707   1.084       .  S
C703        C770   1.482       .  S
C703        C704   1.406       .  A
C704        C705   1.408       .  A
C704        H708   1.083       .  S
C705        C874   1.501       .  S
C705        C706   1.411       .  A
C706        H709   1.084       .  S
C710        C859   1.463       .  S
C710        C711   1.397       .  A
C710        C715   1.395       .  A
C711        C712   1.398       .  A
C711        H716   1.084       .  S
C712       C1035   1.399       .  A
C713       C1034   1.399   1_545  A
C713        C714   1.399       .  A
C713        H717   1.084       .  S
C714        C847   1.473       .  S
C714       C1037   1.397       .  A
C715       C1036   1.397       .  A
C715        H718   1.085       .  S
O719        C727   1.294       .  A
O719       Co739   2.094   1_554  S
O720        C728   1.271       .  A
O720       Co740   2.017   1_554  S
O721        C729   1.272       .  A
O721       Co741   1.983       .  S
O722        C730   1.254       .  A
O722       Co742   1.976       .  S
O723        C729   1.282       .  A
O723       Co740   2.040   1_554  S
O724        C730   1.264       .  A
O724       Co739   2.023   1_554  S
O725        C728   1.256       .  A
O725       Co742   1.948       .  S
O726        C727   1.267       .  A
O726       Co741   1.875       .  S
C727        C862   1.479       .  S
C728        C850   1.479       .  S
C729        C814   1.503       .  S
C730        C799   1.483       .  S
O731        C744   1.268       .  A
O731       Co739   1.978       .  S
O732        C745   1.255       .  A
O732       Co740   1.973       .  S
O733        C746   1.295       .  A
O733       Co741   2.091   1_556  S
O734        C747   1.273       .  A
O734       Co742   2.023   1_556  S
O735        C747   1.257       .  A
O735       Co740   1.944       .  S
O736        C746   1.266       .  A
O736       Co739   1.875       .  S
O737        C744   1.279       .  A
O737       Co742   2.043   1_556  S
O738        C745   1.263       .  A
O738       Co741   2.023   1_556  S
Co739       O743   1.999   1_556  S
Co740       O743   2.024   1_556  S
Co741       O743   2.001       .  S
Co742       O743   2.032       .  S
C744        C823   1.489       .  S
C745        C835   1.502       .  S
C746        C787   1.458       .  S
C747        C775   1.472       .  S
C748        C811   1.490       .  S
C748        C749   1.404       .  A
C749        H754   1.084       .  S
C750        C751   1.406   1_455  A
C751        C752   1.415       .  A
C751        H755   1.082       .  S
C752        C802   1.514       .  S
C752        C753   1.415   1_655  A
C753        H756   1.081       .  S
C757        C790   1.470       .  S
C757        C758   1.401       .  A
C757        C762   1.400       .  A
C758       C1081   1.397       .  A
C758        H763   1.084       .  S
C759        C778   1.466       .  S
C759       C1080   1.397   1_545  A
C759        C760   1.397       .  A
C760       C1083   1.394       .  A
C760        H764   1.085       .  S
C761       C1082   1.394       .  A
C761        C762   1.397       .  A
C762        H765   1.084       .  S
C766        C838   1.501       .  S
C766        C771   1.409       .  A
C767        C768   1.411       .  A
C767        H772   1.084       .  S
C768        C826   1.495       .  S
C768        C769   1.408       .  A
C769        C770   1.406       .  A
C769        H773   1.084       .  S
C771        H774   1.084       .  S
C775        C776   1.406       .  A
C775        C780   1.411       .  A
C776        C777   1.389       .  A
C776        H781   1.085       .  S
C777        C778   1.406       .  A
C777        C784   1.446       .  S
C778        C779   1.403       .  A
C779        C780   1.401       .  A
C779        H782   1.085       .  S
C780        C783   1.443       .  S
C783        N785   1.157       .  T
C784        N786   1.157       .  T
C787        C788   1.400       .  A
C787        C792   1.407       .  A
C788        C789   1.393       .  A
C788        H793   1.085       .  S
C789        C790   1.411       .  A
C789        C796   1.445       .  S
C790        C791   1.403       .  A
C791        C792   1.397       .  A
C791        H794   1.085       .  S
C792        C795   1.444       .  S
C795        N797   1.157       .  T
C796        N798   1.157       .  T
C799        C800   1.402       .  A
C799        C804   1.407       .  A
C800        C801   1.404       .  A
C800        H805   1.085       .  S
C801        C802   1.423       .  A
C801        C808   1.444       .  S
C802        C803   1.415       .  A
C803        C804   1.407       .  A
C803        H806   1.082       .  S
C804        C807   1.444       .  S
C807        N809   1.157       .  T
C808        N810   1.158       .  T
C811        C812   1.397       .  A
C811        C816   1.411       .  A
C812        C813   1.404       .  A
C812        H817   1.085       .  S
C813        C814   1.420       .  A
C813        C820   1.437       .  S
C814        C815   1.410       .  A
C815        C816   1.409       .  A
C815        H818   1.085       .  S
C816        C819   1.443       .  S
C819        N821   1.157       .  T
C820        N822   1.155       .  T
C823        C824   1.406       .  A
C823        C828   1.416       .  A
C824        C825   1.412       .  A
C824        H829   1.085       .  S
C825        C826   1.416       .  A
C825        C832   1.443       .  S
C826        C827   1.400       .  A
C827        C828   1.400       .  A
C827        H830   1.086       .  S
C828        C831   1.442       .  S
C831        N833   1.157       .  T
C832        N834   1.157       .  T
C835        C836   1.410       .  A
C835        C840   1.418       .  A
C836        C837   1.403       .  A
C836        H841   1.084       .  S
C837        C838   1.414       .  A
C837        C844   1.445       .  S
C838        C839   1.408       .  A
C839        C840   1.409       .  A
C839        H842   1.085       .  S
C840        C843   1.444       .  S
C843        N845   1.158       .  T
C844        N846   1.157       .  T
C847        C848   1.404       .  A
C847        C852   1.407       .  A
C848        C849   1.396       .  A
C848        H853   1.086       .  S
C849        C850   1.413       .  A
C849        C856   1.444       .  S
C850        C851   1.410       .  A
C851        C852   1.392       .  A
C851        H854   1.085       .  S
C852        C855   1.445       .  S
C855        N857   1.157       .  T
C856        N858   1.157       .  T
C859        C860   1.398       .  A
C859        C864   1.406       .  A
C860        C861   1.399       .  A
C860        H865   1.085       .  S
C861        C862   1.418       .  A
C861        C868   1.443       .  S
C862        C863   1.405       .  A
C863        C864   1.389       .  A
C863        H866   1.085       .  S
C864        C867   1.446       .  S
C867        N869   1.157       .  T
C868        N870   1.157       .  T
C871        C872   1.404       .  A
C872        C873   1.411       .  A
C872        H877   1.084       .  S
C873        C874   1.418       .  A
C873        C880   1.443       .  S
C875        C876   1.401       .  A
C875        H878   1.085       .  S
C876        C879   1.443       .  S
C879        N881   1.157       .  T
C880        N882   1.157       .  T
C883        C884   1.411   1_455  A
C884        C885   1.408       .  A
C884        H889   1.085       .  S
C885        C886   1.414       .  A
C885        C892   1.444       .  S
C887        C888   1.406       .  A
C887        H890   1.085       .  S
C888        C891   1.444       .  S
C891        N893   1.157       .  T
C892        N894   1.157       .  T
C895        C900   1.418   1_455  A
C896        C897   1.410       .  A
C896        H901   1.085       .  S
C897        C904   1.442       .  S
C898        C899   1.399   1_455  A
C899        C900   1.403       .  A
C899        H902   1.086       .  S
C900        C903   1.440       .  S
C903        N905   1.156       .  T
C904        N906   1.157       .  T
C907        C912   1.418       .  A
C908        C909   1.401       .  A
C908        H913   1.084       .  S
C909        C916   1.445       .  S
C910        C911   1.408       .  A
C911        C912   1.410       .  A
C911        H914   1.084       .  S
C912        C915   1.443       .  S
C915        N917   1.157       .  T
C916        N918   1.157       .  T
C919       C1242   1.410   1_545  A
C919        C924   1.413       .  A
C920       C1241   1.410       .  A
C920        C921   1.391       .  A
C920        H925   1.085       .  S
C921        C922   1.409       .  A
C921        C928   1.446       .  S
C922       C1245   1.406       .  A
C923       C1244   1.406       .  A
C923        C924   1.401       .  A
C923        H926   1.085       .  S
C924        C927   1.443       .  S
C927        N929   1.157       .  T
C928        N930   1.157       .  T
C931       C1254   1.405       .  A
C931        C936   1.415       .  A
C932       C1253   1.405       .  A
C932        C933   1.393       .  A
C932        H937   1.085       .  S
C933       C1256   1.405       .  A
C933        C940   1.445       .  S
C934       C1255   1.405       .  A
C934        C935   1.397       .  A
C935        C936   1.396       .  A
C935        H938   1.085       .  S
C936        C939   1.444       .  S
C939        N941   1.157       .  T
C940        N942   1.157       .  T
C943       C1266   1.395       .  A
C943        C948   1.409       .  A
C944       C1265   1.395   1_545  A
C944        C945   1.391       .  A
C944        H949   1.086       .  S
C945        C946   1.416   1_545  A
C945        C952   1.447       .  S
C946       C1269   1.399       .  A
C947       C1268   1.399       .  A
C947        C948   1.398       .  A
C947        H950   1.085       .  S
C948        C951   1.443       .  S
C951        N953   1.157       .  T
C952        N954   1.157       .  T
C955        C956   1.403       .  A
C955       C1282   1.412       .  A
C956        C957   1.388       .  A
C956        H961   1.085       .  S
C957        C958   1.412       .  A
C957        C964   1.445       .  S
C958       C1281   1.405       .  A
C959       C1280   1.405   1_545  A
C959        C960   1.399       .  A
C959        H962   1.085       .  S
C960       C1277   1.412   1_545  A
C960        C963   1.443       .  S
C963        N965   1.157       .  T
C964        N966   1.157       .  T
O967        C975   1.263       .  A
O967       Co987   1.866       .  S
O968        C976   1.250       .  A
O968       Co988   1.939       .  S
O969        C977   1.264       .  A
O969       Co989   2.031       .  S
O970        C978   1.278       .  A
O970       Co990   2.033       .  S
O971       Co988   1.967       .  S
O972       Co987   1.984       .  S
O973       Co990   2.022       .  S
O974       Co989   2.094       .  S
C975       C1277   1.472       .  S
C976       C1268   1.463       .  S
C977       C1232   1.502       .  S
O979       Co987   2.021       .  S
O980       Co988   2.035       .  S
O981       Co989   1.877       .  S
O982       Co990   1.943       .  S
O983        C995   1.274       .  A
O983       Co988   2.031       .  S
O984        C994   1.295   1_565  A
O984       Co987   2.086       .  S
O985        C992   1.254       .  A
O985       Co990   1.979       .  S
O986        C993   1.269   1_655  A
O986       Co989   1.979       .  S
Co987       O991   2.001   1_655  S
C993       C1205   1.506       .  S
C994       C1253   1.469       .  S
C995       C1241   1.484       .  S
C996       C1229   1.505       .  S
C996        C997   1.412       .  A
C996       C1001   1.412       .  A
C997        C998   1.409   1_655  A
C997       H1002   1.082       .  S
C998       C1220   1.490       .  S
C998        C999   1.405       .  A
C999       C1000   1.405       .  A
C999       H1003   1.084       .  S
C1000      C1072   1.483       .  S
C1000      C1001   1.404   1_455  A
C1001      H1004   1.084       .  S
C1005      C1280   1.477       .  S
C1005      C1006   1.402       .  A
C1006      C1007   1.400       .  A
C1006      H1011   1.084       .  S
C1007      C1034   1.457       .  S
C1007      C1008   1.398       .  A
C1008      C1009   1.394       .  A
C1008      H1012   1.084       .  S
C1009      C1265   1.461       .  S
C1010      H1013   1.084       .  S
C1014      C1256   1.459       .  S
C1014      C1019   1.392       .  A
C1015      H1020   1.084       .  S
C1016      C1244   1.479       .  S
C1016      C1017   1.404       .  A
C1017      C1018   1.399       .  A
C1017      H1021   1.084       .  S
C1018      C1083   1.455       .  S
C1018      C1019   1.393       .  A
C1019      H1022   1.085   1_545  S
C1023      C1208   1.502       .  S
C1023      C1024   1.409       .  A
C1023      C1028   1.410       .  A
C1024      C1025   1.406       .  A
C1024      H1029   1.084       .  S
C1025      C1092   1.482       .  S
C1025      C1026   1.406       .  A
C1026      C1027   1.408       .  A
C1026      H1030   1.083       .  S
C1027      C1196   1.501       .  S
C1027      C1028   1.411       .  A
C1028      H1031   1.084       .  S
C1032      C1181   1.463       .  S
C1032      C1033   1.397       .  A
C1032      C1037   1.395   1_565  A
C1033      C1034   1.398       .  A
C1033      H1038   1.084       .  S
C1035      C1036   1.399       .  A
C1035      H1039   1.084       .  S
C1036      C1169   1.473       .  S
C1037      H1040   1.085       .  S
O1041      C1049   1.294       .  A
O1041     Co1061   2.094   1_554  S
O1042      C1050   1.271       .  A
O1042     Co1062   2.017   1_554  S
O1043      C1051   1.272       .  A
O1043     Co1063   1.983       .  S
O1044      C1052   1.254       .  A
O1044     Co1064   1.976       .  S
O1045      C1051   1.282       .  A
O1045     Co1062   2.040   1_554  S
O1046      C1052   1.264       .  A
O1046     Co1061   2.023   1_554  S
O1047      C1050   1.256       .  A
O1047     Co1064   1.948       .  S
O1048      C1049   1.267       .  A
O1048     Co1063   1.875       .  S
C1049      C1184   1.479       .  S
C1050      C1172   1.479       .  S
C1051      C1136   1.503       .  S
C1052      C1121   1.483       .  S
O1053      C1066   1.268       .  A
O1053     Co1061   1.978       .  S
O1054      C1067   1.255       .  A
O1054     Co1062   1.973       .  S
O1055      C1068   1.295       .  A
O1055     Co1063   2.091   1_556  S
O1056      C1069   1.273       .  A
O1056     Co1064   2.023   1_556  S
O1057      C1069   1.257       .  A
O1057     Co1062   1.944       .  S
O1058      C1068   1.266       .  A
O1058     Co1061   1.875       .  S
O1059      C1066   1.279       .  A
O1059     Co1064   2.043   1_556  S
O1060      C1067   1.263       .  A
O1060     Co1063   2.023   1_556  S
Co1061     O1065   1.999   1_556  S
Co1062     O1065   2.024   1_556  S
Co1063     O1065   2.001       .  S
Co1064     O1065   2.032       .  S
C1066      C1145   1.489       .  S
C1067      C1157   1.502       .  S
C1068      C1109   1.458       .  S
C1069      C1097   1.472       .  S
C1070      C1133   1.490       .  S
C1070      C1071   1.404       .  A
C1071      H1076   1.084       .  S
C1072      C1073   1.406   1_455  A
C1073      C1074   1.415       .  A
C1073      H1077   1.082       .  S
C1074      C1124   1.514       .  S
C1074      C1075   1.415   1_655  A
C1075      H1078   1.081       .  S
C1079      C1112   1.470       .  S
C1079      C1080   1.401       .  A
C1079      C1084   1.400       .  A
C1080      H1085   1.084       .  S
C1081      C1100   1.466       .  S
C1081      C1082   1.397       .  A
C1082      H1086   1.085       .  S
C1083      C1084   1.397   1_545  A
C1084      H1087   1.084       .  S
C1088      C1160   1.501       .  S
C1088      C1093   1.409       .  A
C1089      C1090   1.411       .  A
C1089      H1094   1.084       .  S
C1090      C1148   1.495       .  S
C1090      C1091   1.408       .  A
C1091      C1092   1.406       .  A
C1091      H1095   1.084       .  S
C1093      H1096   1.084       .  S
C1097      C1098   1.406       .  A
C1097      C1102   1.411       .  A
C1098      C1099   1.389       .  A
C1098      H1103   1.085       .  S
C1099      C1100   1.406       .  A
C1099      C1106   1.446       .  S
C1100      C1101   1.403       .  A
C1101      C1102   1.401       .  A
C1101      H1104   1.085       .  S
C1102      C1105   1.443       .  S
C1105      N1107   1.157       .  T
C1106      N1108   1.157       .  T
C1109      C1110   1.400       .  A
C1109      C1114   1.407       .  A
C1110      C1111   1.393       .  A
C1110      H1115   1.085       .  S
C1111      C1112   1.411       .  A
C1111      C1118   1.445       .  S
C1112      C1113   1.403       .  A
C1113      C1114   1.397       .  A
C1113      H1116   1.085       .  S
C1114      C1117   1.444       .  S
C1117      N1119   1.157       .  T
C1118      N1120   1.157       .  T
C1121      C1122   1.402       .  A
C1121      C1126   1.407       .  A
C1122      C1123   1.404       .  A
C1122      H1127   1.085       .  S
C1123      C1124   1.423       .  A
C1123      C1130   1.444       .  S
C1124      C1125   1.415       .  A
C1125      C1126   1.407       .  A
C1125      H1128   1.082       .  S
C1126      C1129   1.444       .  S
C1129      N1131   1.157       .  T
C1130      N1132   1.158       .  T
C1133      C1134   1.397       .  A
C1133      C1138   1.411       .  A
C1134      C1135   1.404       .  A
C1134      H1139   1.085       .  S
C1135      C1136   1.420       .  A
C1135      C1142   1.437       .  S
C1136      C1137   1.410       .  A
C1137      C1138   1.409       .  A
C1137      H1140   1.085       .  S
C1138      C1141   1.443       .  S
C1141      N1143   1.157       .  T
C1142      N1144   1.155       .  T
C1145      C1146   1.406       .  A
C1145      C1150   1.416       .  A
C1146      C1147   1.412       .  A
C1146      H1151   1.085       .  S
C1147      C1148   1.416       .  A
C1147      C1154   1.443       .  S
C1148      C1149   1.400       .  A
C1149      C1150   1.400       .  A
C1149      H1152   1.086       .  S
C1150      C1153   1.442       .  S
C1153      N1155   1.157       .  T
C1154      N1156   1.157       .  T
C1157      C1158   1.410       .  A
C1157      C1162   1.418       .  A
C1158      C1159   1.403       .  A
C1158      H1163   1.084       .  S
C1159      C1160   1.414       .  A
C1159      C1166   1.445       .  S
C1160      C1161   1.408       .  A
C1161      C1162   1.409       .  A
C1161      H1164   1.085       .  S
C1162      C1165   1.444       .  S
C1165      N1167   1.158       .  T
C1166      N1168   1.157       .  T
C1169      C1170   1.404       .  A
C1169      C1174   1.407       .  A
C1170      C1171   1.396       .  A
C1170      H1175   1.086       .  S
C1171      C1172   1.413       .  A
C1171      C1178   1.444       .  S
C1172      C1173   1.410       .  A
C1173      C1174   1.392       .  A
C1173      H1176   1.085       .  S
C1174      C1177   1.445       .  S
C1177      N1179   1.157       .  T
C1178      N1180   1.157       .  T
C1181      C1182   1.398       .  A
C1181      C1186   1.406       .  A
C1182      C1183   1.399       .  A
C1182      H1187   1.085       .  S
C1183      C1184   1.418       .  A
C1183      C1190   1.443       .  S
C1184      C1185   1.405       .  A
C1185      C1186   1.389       .  A
C1185      H1188   1.085       .  S
C1186      C1189   1.446       .  S
C1189      N1191   1.157       .  T
C1190      N1192   1.157       .  T
C1193      C1194   1.404       .  A
C1194      C1195   1.411       .  A
C1194      H1199   1.084       .  S
C1195      C1196   1.418       .  A
C1195      C1202   1.443       .  S
C1197      C1198   1.401       .  A
C1197      H1200   1.085       .  S
C1198      C1201   1.443       .  S
C1201      N1203   1.157       .  T
C1202      N1204   1.157       .  T
C1205      C1206   1.411   1_455  A
C1206      C1207   1.408       .  A
C1206      H1211   1.085       .  S
C1207      C1208   1.414       .  A
C1207      C1214   1.444       .  S
C1209      C1210   1.406       .  A
C1209      H1212   1.085       .  S
C1210      C1213   1.444       .  S
C1213      N1215   1.157       .  T
C1214      N1216   1.157       .  T
C1217      C1222   1.418   1_455  A
C1218      C1219   1.410       .  A
C1218      H1223   1.085       .  S
C1219      C1226   1.442       .  S
C1220      C1221   1.399   1_455  A
C1221      C1222   1.403       .  A
C1221      H1224   1.086       .  S
C1222      C1225   1.440       .  S
C1225      N1227   1.156       .  T
C1226      N1228   1.157       .  T
C1229      C1234   1.418       .  A
C1230      C1231   1.401       .  A
C1230      H1235   1.084       .  S
C1231      C1238   1.445       .  S
C1232      C1233   1.408       .  A
C1233      C1234   1.410       .  A
C1233      H1236   1.084       .  S
C1234      C1237   1.443       .  S
C1237      N1239   1.157       .  T
C1238      N1240   1.157       .  T
C1241      C1246   1.413       .  A
C1242      C1243   1.391       .  A
C1242      H1247   1.085       .  S
C1243      C1244   1.409   1_565  A
C1243      C1250   1.446       .  S
C1245      C1246   1.401       .  A
C1245      H1248   1.085       .  S
C1246      C1249   1.443       .  S
C1249      N1251   1.157       .  T
C1250      N1252   1.157       .  T
C1253      C1258   1.415   1_545  A
C1254      C1255   1.393       .  A
C1254      H1259   1.085       .  S
C1255      C1262   1.445       .  S
C1256      C1257   1.397   1_545  A
C1257      C1258   1.396       .  A
C1257      H1260   1.085       .  S
C1258      C1261   1.444       .  S
C1261      N1263   1.157       .  T
C1262      N1264   1.157       .  T
C1265      C1270   1.409       .  A
C1266      C1267   1.391       .  A
C1266      H1271   1.086       .  S
C1267      C1268   1.416       .  A
C1267      C1274   1.447       .  S
C1269      C1270   1.398       .  A
C1269      H1272   1.085       .  S
C1270      C1273   1.443       .  S
C1273      N1275   1.157       .  T
C1274      N1276   1.157       .  T
C1277      C1278   1.403       .  A
C1278      C1279   1.388       .  A
C1278      H1283   1.085       .  S
C1279      C1280   1.412       .  A
C1279      C1286   1.445       .  S
C1281      C1282   1.399       .  A
C1281      H1284   1.085       .  S
C1282      C1285   1.443       .  S
C1285      N1287   1.157       .  T
C1286      N1288   1.157       .  T
