geometry optimzed in LAMMPS
_audit_creation_date              2020-11-30 
_audit_creation_method            'lammps2cif' 
_symmetry_space_group_name_H-M    'P1' 
_symmetry_Int_Tables_number       1 
_symmetry_cell_setting            triclinic 
loop_ 
_symmetry_equiv_pos_as_xyz 
  x,y,z 
_cell_length_a                    48.76203832 
_cell_length_b                    47.69294606683578 
_cell_length_c                    43.326701561955886 
_cell_angle_alpha                 89.72268817419355 
_cell_angle_beta                  89.84150764640522 
_cell_angle_gamma                 90.06575407471152 
loop_ 
_atom_site_label 
_atom_site_type_symbol 
_atom_site_fract_x 
_atom_site_fract_y 
_atom_site_fract_z 
_atom_site_charge 
C1          C  0.71721446  0.84418003  0.19022560     0.86100
C2          C  0.71820680  0.86319970  0.21833937    -0.54100
C3          C  0.74357444  0.87236912  0.22679391     0.09000
C4          C  0.76636475  0.86231767  0.20433680     0.20000
C5          C  0.73140410  0.86225753  0.16413611    -0.54800
C6          C  0.75757225  0.87162090  0.17177393     0.09100
C7          C  0.73841855  0.82108315  0.19593658    -0.54400
C8          C  0.76385147  0.83027044  0.20346359     0.09700
H9          H  0.70011720  0.86723160  0.23177385     0.14200
H10         H  0.78734985  0.86944257  0.21017364     0.00000
H11         H  0.72261253  0.86588515  0.14152323     0.14500
H12         H  0.73411112  0.79901934  0.19193753     0.14300
C13         C  0.63460319  0.76489695  0.15631250     0.86100
C14         C  0.62580002  0.76594393  0.12233875    -0.54100
C15         C  0.62053040  0.74063992  0.10941349     0.09000
C16         C  0.62277220  0.71590090  0.13212023     0.20000
C17         C  0.61102618  0.74892903  0.17309086    -0.54800
C18         C  0.60506450  0.72297187  0.16057085     0.09100
C19         C  0.65836682  0.74345907  0.15651507    -0.54400
C20         C  0.65198297  0.71804889  0.14433605     0.09700
H21         H  0.62716018  0.78417786  0.10775148     0.14200
H22         H  0.61828242  0.69522517  0.12154240     0.00000
H23         H  0.60192652  0.75623606  0.19447437     0.14500
H24         H  0.67883475  0.74819009  0.16490104     0.14300
C25         C  0.86069438  0.69964693  0.16528094     0.86100
C26         C  0.83783597  0.72146444  0.17082245    -0.54100
C27         C  0.84631856  0.74644178  0.18223740     0.09000
C28         C  0.87715863  0.74787648  0.18827958     0.20000
C29         C  0.88130818  0.71614109  0.14423694    -0.54800
C30         C  0.88984576  0.74148925  0.15639094     0.09100
C31         C  0.87640186  0.69756686  0.19608240    -0.54400
C32         C  0.88355649  0.72246523  0.20928023     0.09700
H33         H  0.81636638  0.71740423  0.16581564     0.14200
H34         H  0.88374484  0.76825173  0.19811329     0.00000
H35         H  0.88793884  0.71013476  0.12153191     0.14500
H36         H  0.87769291  0.67803336  0.20903539     0.14300
C37         C  0.77763042  0.61348727  0.14086070     0.86100
C38         C  0.75910050  0.63908063  0.13785777    -0.54100
C39         C  0.73340429  0.63353714  0.12841938     0.09000
C40         C  0.72747194  0.60269019  0.12242858     0.20000
C41         C  0.76121974  0.59270713  0.16211796    -0.54800
C42         C  0.73464293  0.58787701  0.15270917     0.09100
C43         C  0.77546480  0.59914567  0.10889869    -0.54400
C44         C  0.74915408  0.59364001  0.09847985     0.09700
H45         H  0.76538574  0.66011501  0.14444137     0.14200
H46         H  0.70597265  0.59911084  0.11687992     0.00000
H47         H  0.76913884  0.58293429  0.18271837     0.14500
H48         H  0.79337009  0.59432934  0.09530555     0.14300
C49         C  0.86114337  0.69269857  0.39162869     0.86100
C50         C  0.86940272  0.69228274  0.35702268    -0.54100
C51         C  0.87244546  0.71812290  0.34351021     0.09000
C52         C  0.86713219  0.74248892  0.36607699     0.20000
C53         C  0.88314815  0.71149987  0.40733480    -0.54800
C54         C  0.88608581  0.73797811  0.39444841     0.09100
C55         C  0.83553031  0.71121056  0.39240932    -0.54400
C56         C  0.83806635  0.73642737  0.37858894     0.09700
H57         H  0.87053950  0.67367115  0.34308904     0.14200
H58         H  0.86910270  0.76356065  0.35525239     0.00000
H59         H  0.89368096  0.70522158  0.42828888     0.14500
H60         H  0.81703222  0.70556665  0.40504488     0.14300
C61         C  0.77818184  0.61624410  0.43068550     0.86100
C62         C  0.77878410  0.59862400  0.46023039    -0.54100
C63         C  0.75390440  0.58971416  0.47060936     0.09000
C64         C  0.73031626  0.59656559  0.44790536     0.20000
C65         C  0.76447974  0.59599947  0.40660709    -0.54800
C66         C  0.73902008  0.58575319  0.41608476     0.09100
C67         C  0.75570203  0.63856261  0.43508054    -0.54400
C68         C  0.73051569  0.62830367  0.44272133     0.09700
H69         H  0.79696311  0.59778523  0.47467325     0.14200
H70         H  0.71015431  0.58837802  0.45583106     0.00000
H71         H  0.77252880  0.59223558  0.38365976     0.14500
H72         H  0.75948224  0.66082322  0.43186505     0.14300
C73         C  0.63613877  0.75994442  0.43807975     0.86100
C74         C  0.65702539  0.73655192  0.44494363    -0.54100
C75         C  0.64636973  0.71128434  0.45438770     0.09000
C76         C  0.61516686  0.71234710  0.45780508     0.20000
C77         C  0.61658496  0.74517134  0.41448604    -0.54800
C78         C  0.60575747  0.72006164  0.42491376     0.09100
C79         C  0.61786194  0.76263627  0.46647013    -0.54400
C80         C  0.60886333  0.73794869  0.47873774     0.09700
H81         H  0.67842793  0.73870734  0.43829077     0.14200
H82         H  0.60572265  0.69274755  0.46640962     0.00000
H83         H  0.61273002  0.75219504  0.39113453     0.14500
H84         H  0.61485375  0.78237963  0.47827241     0.14300
C85         C  0.71547055  0.84600562  0.39858172     0.86100
C86         C  0.73437201  0.82079221  0.39714476    -0.54100
C87         C  0.76035202  0.82625181  0.38850410     0.09000
C88         C  0.76575093  0.85719117  0.38110827     0.20000
C89         C  0.73124749  0.86689964  0.42029971    -0.54800
C90         C  0.75768047  0.87293602  0.41036351     0.01100
C91         C  0.71811519  0.86063333  0.36686278    -0.54400
C92         C  0.74451283  0.86584801  0.35662380     0.09700
H93         H  0.72769600  0.79974567  0.40350898     0.14200
H94         H  0.78706803  0.86098742  0.37545723     0.00000
H95         H  0.72267550  0.87586791  0.44115040     0.14500
H96         H  0.70038138  0.86671900  0.35389429     0.14300
In97       In  0.92397124  0.80700603  0.10339622     1.36900
C98         C  0.88322037  0.84611555  0.11286783     0.77200
O99         O  0.93175481  0.82581894  0.05620907    -0.61200
O100        O  0.91632088  0.78439049  0.05808867    -0.52200
C101        C  0.98003729  0.80974968  0.11109761     0.69900
O102        O  0.96493703  0.83127143  0.11039225    -0.47000
C103        C  0.90442678  0.76381015  0.13810979     0.74600
O104        O  0.90606201  0.84714510  0.12672975    -0.58900
O105        O  0.90878451  0.76205405  0.10946688    -0.49000
O106        O  0.88137924  0.82531228  0.09518707    -0.55300
C107        C  0.92409199  0.80459575  0.04134339     0.84800
O108        O  0.96641225  0.78731999  0.11042640    -0.57200
O109        O  0.91131731  0.78723020  0.14936292    -0.60500
In110      In  0.06679045  0.80848257  0.09948779     1.36900
C111        C  0.10621650  0.84921846  0.10896494     0.77200
O112        O  0.08009983  0.78843628  0.14447230    -0.61200
O113        O  0.08520383  0.76415522  0.10425627    -0.52200
C114        C  0.01091694  0.81011308  0.11014834     0.69900
O115        O  0.02545008  0.83190789  0.10729863    -0.47000
C116        C  0.06532987  0.80548162  0.03751938     0.74600
O117        O  0.08298187  0.84985000  0.12210004    -0.58900
O118        O  0.07180395  0.78494916  0.05434921    -0.49000
O119        O  0.10908376  0.82802930  0.09202581    -0.55300
C120        C  0.08879262  0.76570952  0.13301805     0.84800
O121        O  0.02504398  0.78803547  0.10983601    -0.57200
O122        O  0.05955932  0.82739514  0.05223347    -0.60500
In123      In  0.16858407  0.91169291  0.10735303     1.36900
C124        C  0.12832966  0.87125658  0.11142184     0.77200
O125        O  0.14835341  0.92201542  0.06200658    -0.61200
O126        O  0.18736491  0.90222861  0.06102802    -0.52200
C127        C  0.16959876  0.96861137  0.11485803     0.69900
O128        O  0.15115657  0.95335993  0.12702066    -0.47000
C129        C  0.21153184  0.89380177  0.14239109     0.74600
O130        O  0.12560577  0.89530397  0.12344446    -0.58900
O131        O  0.21262160  0.89640632  0.11346474    -0.49000
O132        O  0.15174651  0.86767286  0.09972720    -0.55300
C133        C  0.16749494  0.91203276  0.04581373     0.84800
O134        O  0.18736296  0.95474620  0.10038575    -0.57200
O135        O  0.18848216  0.90052045  0.15362392    -0.60500
In136      In  0.17089397  0.05698524  0.10708880     1.36900
C137        C  0.12946774  0.09585520  0.11248733     0.77200
O138        O  0.18905498  0.07103805  0.15280348    -0.61200
O139        O  0.21458449  0.07415261  0.11365244    -0.52200
C140        C  0.17034098  0.00002534  0.11526788     0.69900
O141        O  0.15144071  0.01563727  0.12543218    -0.47000
C142        C  0.17129779  0.05577712  0.04540966     0.74600
O143        O  0.12925148  0.07286884  0.12726518    -0.58900
O144        O  0.19036716  0.06698310  0.06070740    -0.49000
O145        O  0.15065996  0.09883601  0.09610005    -0.55300
C146        C  0.21190965  0.07895677  0.14205603     0.84800
O147        O  0.18985460  0.01359843  0.10330041    -0.57200
O148        O  0.15231758  0.04530350  0.06157990    -0.60500
In149      In  0.92339529  0.15855576  0.11015948     1.36900
C150        C  0.90242434  0.20155382  0.14461823     0.77200
O151        O  0.91861918  0.18292764  0.06540043    -0.61200
O152        O  0.93078102  0.14036717  0.06314282    -0.52200
C153        C  0.97994330  0.15602809  0.11865599     0.69900
O154        O  0.96613791  0.17829365  0.11726473    -0.47000
C155        C  0.88347312  0.11708204  0.11697716     0.74600
O156        O  0.91213435  0.17894030  0.15551550    -0.58900
O157        O  0.88190327  0.13806089  0.09927527    -0.49000
O158        O  0.90389797  0.20278550  0.11558696    -0.55300
C159        C  0.92491174  0.16242781  0.04855822     0.84800
O160        O  0.96480915  0.13448833  0.11809203    -0.57200
O161        O  0.90532628  0.11735174  0.13280588    -0.60500
In162      In  0.06720035  0.15843706  0.10794331     1.36900
C163        C  0.10710484  0.11762998  0.11271950     0.77200
O164        O  0.05388627  0.14361806  0.06066941    -0.61200
O165        O  0.07829048  0.18015422  0.06245104    -0.52200
C166        C  0.01103112  0.15597308  0.11829877     0.69900
O167        O  0.02600185  0.13434169  0.11698528    -0.47000
C168        C  0.08778582  0.20172845  0.14219180     0.74600
O169        O  0.08538150  0.11695951  0.12887714    -0.58900
O170        O  0.08121093  0.20373783  0.11413178    -0.49000
O171        O  0.10829722  0.13886142  0.09544163    -0.55300
C172        C  0.06590783  0.16272976  0.04569490     0.84800
O173        O  0.02492540  0.17825084  0.11692197    -0.57200
O174        O  0.08294979  0.17764769  0.15346145    -0.60500
In175      In  0.81927470  0.90678624  0.11325679     1.36900
C176        C  0.86048853  0.86739293  0.11542514     0.77200
O177        O  0.80183985  0.89296569  0.15989732    -0.61200
O178        O  0.77529483  0.88938146  0.12202576    -0.52200
C179        C  0.82048312  0.96416941  0.12067488     0.69900
O180        O  0.83929495  0.94835291  0.13082319    -0.47000
C181        C  0.81903605  0.90863456  0.05160472     0.74600
O182        O  0.86167083  0.89019405  0.13030167    -0.58900
O183        O  0.79896151  0.89931453  0.06708290    -0.49000
O184        O  0.83811490  0.86442386  0.10129660    -0.55300
C185        C  0.77841011  0.88538939  0.15059542     0.84800
O186        O  0.80089932  0.95060610  0.10909557    -0.57200
O187        O  0.83891504  0.91707717  0.06759032    -0.60500
In188      In  0.82116411  0.05316146  0.11179104     1.36900
C189        C  0.86158907  0.09432723  0.11727026     0.77200
O190        O  0.84013579  0.04191538  0.06614513    -0.61200
O191        O  0.80198409  0.06349045  0.06601768    -0.52200
C192        C  0.82111317  0.99577625  0.12006817     0.69900
O193        O  0.84074370  0.01112020  0.12907701    -0.47000
C194        C  0.77806772  0.07233560  0.14606599     0.74600
O195        O  0.86191557  0.07178711  0.13296396    -0.58900
O196        O  0.77664041  0.06962398  0.11722246    -0.49000
O197        O  0.84077976  0.09578458  0.10020902    -0.55300
C198        C  0.82119200  0.05287226  0.05039900     0.84800
O199        O  0.80182001  0.00977345  0.10847119    -0.57200
O200        O  0.80072455  0.06411520  0.15701133    -0.60500
In201      In  0.82445122  0.91155539  0.45437696     1.36900
C202        C  0.86548020  0.87199527  0.44503261     0.77200
O203        O  0.84344081  0.92400459  0.49951229    -0.61200
O204        O  0.80591323  0.90131845  0.50060784    -0.52200
C205        C  0.82501433  0.96841077  0.44431056     0.69900
O206        O  0.84531388  0.95298285  0.43798330    -0.47000
C207        C  0.77937792  0.88972071  0.42633657     0.74600
O208        O  0.86187397  0.89250530  0.42679439    -0.58900
O209        O  0.78089714  0.89259788  0.45509618    -0.49000
O210        O  0.84846880  0.87199926  0.46690897    -0.55300
C211        C  0.82491636  0.91267371  0.51572569     0.84800
O212        O  0.80458803  0.95469946  0.45379489    -0.57200
O213        O  0.80003904  0.89938632  0.41207935    -0.60500
In214      In  0.82487975  0.05662858  0.45270306     1.36900
C215        C  0.86520610  0.09652192  0.44735490     0.77200
O216        O  0.80562432  0.07299641  0.40814554    -0.61200
O217        O  0.78056004  0.07193917  0.44785741    -0.52200
C218        C  0.82501203  0.99983956  0.44357259     0.69900
O219        O  0.84531673  0.01514392  0.43648661    -0.47000
C220        C  0.82176569  0.05375528  0.01655060     0.74600
O221        O  0.86562433  0.07410320  0.43172362    -0.58900
O222        O  0.80293565  0.06481260  0.00076209    -0.49000
O223        O  0.84414083  0.09860884  0.46410001    -0.55300
C224        C  0.78235596  0.07835139  0.41968954     0.84800
O225        O  0.80458090  0.01371929  0.45251388    -0.57200
O226        O  0.84492825  0.04466642  0.49761675    -0.60500
In227      In  0.16913542  0.91231322  0.44923883     1.36900
C228        C  0.12823269  0.87279574  0.44150567     0.77200
O229        O  0.19151121  0.89888007  0.40552397    -0.61200
O230        O  0.21331568  0.89451971  0.44702518    -0.52200
C231        C  0.16714459  0.96937377  0.44009760     0.69900
O232        O  0.14778922  0.95330140  0.43219498    -0.47000
C233        C  0.16939460  0.91359451  0.51079923     0.74600
O234        O  0.13046689  0.89405084  0.42405250    -0.58900
O235        O  0.18820723  0.90227666  0.49523493    -0.49000
O236        O  0.14649450  0.87204663  0.46194553    -0.55300
C237        C  0.21328654  0.89042700  0.41837268     0.84800
O238        O  0.18753442  0.95621101  0.45043759    -0.57200
O239        O  0.15037201  0.92426113  0.49495474    -0.60500
In240      In  0.16575396  0.05805609  0.44756972     1.36900
C241        C  0.12562885  0.09840977  0.44169275     0.77200
O242        O  0.14724917  0.04919370  0.49438148    -0.61200
O243        O  0.18748906  0.06629476  0.49211259    -0.52200
C244        C  0.16624733  0.00085671  0.43978535     0.69900
O245        O  0.14603691  0.01579463  0.43167079    -0.47000
C246        C  0.20788462  0.08115539  0.41503626     0.74600
O247        O  0.12570896  0.07649767  0.42520980    -0.58900
O248        O  0.20902227  0.07609630  0.44348628    -0.49000
O249        O  0.14534589  0.09911703  0.46032987    -0.55300
C250        C  0.16806857  0.05770332  0.50890824     0.84800
O251        O  0.18592682  0.01518440  0.44976014    -0.57200
O252        O  0.18583644  0.07286767  0.40268701    -0.60500
In253      In  0.92605517  0.16039217  0.45290566     1.36900
C254        C  0.88722153  0.11864124  0.44772115     0.77200
O255        O  0.93852647  0.14050170  0.49808329    -0.61200
O256        O  0.91706455  0.17928167  0.49914128    -0.52200
C257        C  0.98135023  0.16212675  0.44151609     0.69900
O258        O  0.96635540  0.14243245  0.43162994    -0.47000
C259        C  0.90408122  0.20377698  0.42047870     0.74600
O260        O  0.90919834  0.11853814  0.43203290    -0.58900
O261        O  0.90904780  0.20538311  0.44889015    -0.49000
O262        O  0.88542704  0.13960436  0.46510666    -0.55300
C263        C  0.92484188  0.16356112  0.01466973     0.84800
O264        O  0.96798051  0.18064972  0.45560108    -0.57200
O265        O  0.91162457  0.18082897  0.40872274    -0.60500
In266      In  0.06823102  0.16529699  0.44509977     1.36900
C267        C  0.10506642  0.12190995  0.44054105     0.77200
O268        O  0.08431521  0.18714903  0.40026083    -0.61200
O269        O  0.08488114  0.21017742  0.44129011    -0.52200
C270        C  0.01204420  0.16349363  0.43940353     0.69900
O271        O  0.02744313  0.14585927  0.42626227    -0.47000
C272        C  0.06894834  0.16567919  0.50703881     0.74600
O273        O  0.08339932  0.12267254  0.42445995    -0.58900
O274        O  0.07541955  0.18670711  0.49081804    -0.49000
O275        O  0.10798568  0.14336237  0.45703139    -0.55300
C276        C  0.09073431  0.21005375  0.41301965     0.84800
O277        O  0.02529934  0.18245219  0.45277212    -0.57200
O278        O  0.06190188  0.14446677  0.49167475    -0.60500
In279      In  0.92468262  0.80587042  0.44207292     1.36900
C280        C  0.88669412  0.84900444  0.44199665     0.77200
O281        O  0.90542771  0.78572843  0.39829469    -0.61200
O282        O  0.90953713  0.76034088  0.43765942    -0.52200
C283        C  0.98075490  0.80737157  0.43192353     0.69900
O284        O  0.96525570  0.82783142  0.42537060    -0.47000
C285        C  0.92888841  0.80356865  0.50366040     0.74600
O286        O  0.90537073  0.84725960  0.42162064    -0.58900
O287        O  0.91639162  0.78509183  0.48834801    -0.49000
O288        O  0.88730502  0.82881867  0.46080283    -0.55300
C289        C  0.90114332  0.76180944  0.41023220     0.84800
O290        O  0.96741281  0.78609206  0.44045699    -0.57200
O291        O  0.93922813  0.82296744  0.48755083    -0.60500
In292      In  0.06800348  0.80801949  0.44196473     1.36900
C293        C  0.10668670  0.85020648  0.43950662     0.77200
O294        O  0.05856304  0.82586237  0.48889619    -0.61200
O295        O  0.07673759  0.78549004  0.48681513    -0.52200
C296        C  0.01176073  0.80797516  0.43253460     0.69900
O297        O  0.02677314  0.82882601  0.42583030    -0.47000
C298        C  0.09096432  0.76638748  0.40737965     0.74600
O299        O  0.08567176  0.85033810  0.42229180    -0.58900
O300        O  0.08562091  0.76378684  0.43567980    -0.49000
O301        O  0.10791836  0.82871608  0.45636796    -0.55300
C302        C  0.06815518  0.80517984  0.50358010     0.84800
O303        O  0.02553212  0.78741805  0.44214724    -0.57200
O304        O  0.08375228  0.78989784  0.39645744    -0.60500
C305        C  0.27339048  0.12353595  0.17393328     0.86100
C306        C  0.27172793  0.10790328  0.20498686    -0.54100
C307        C  0.24579852  0.10106969  0.21465797     0.09000
C308        C  0.22349195  0.10913286  0.19098475     0.20000
C309        C  0.25839611  0.10259977  0.15157508    -0.54800
C310        C  0.23222214  0.09523351  0.16074899     0.09100
C311        C  0.25310177  0.14802457  0.17680177    -0.54400
C312        C  0.22716315  0.14060959  0.18492836     0.09700
H313        H  0.28935116  0.10332710  0.21884254     0.14200
H314        H  0.20225235  0.10351896  0.19787552     0.00000
H315        H  0.26713023  0.09416141  0.13058558     0.14500
H316        H  0.25868291  0.16964010  0.17174017     0.14300
C317        C  0.35693235  0.20269454  0.13017229     0.86100
C318        C  0.36973087  0.20609909  0.09780221    -0.54100
C319        C  0.37502804  0.23316480  0.08826230     0.09000
C320        C  0.36909158  0.25455550  0.11419280     0.20000
C321        C  0.37890715  0.21727196  0.15123098    -0.54800
C322        C  0.38541816  0.24446589  0.14254247     0.09100
C323        C  0.33285658  0.22294550  0.13070661    -0.54400
C324        C  0.33893685  0.24970593  0.12326300     0.09700
H325        H  0.37456655  0.18858077  0.08339812     0.14200
H326        H  0.37360572  0.27650255  0.10847168     0.00000
H327        H  0.38819778  0.20742307  0.17122835     0.14500
H328        H  0.31220842  0.21666082  0.13742392     0.14300
C329        C  0.12623393  0.27019767  0.16651759     0.86100
C330        C  0.15037000  0.25112899  0.17581600    -0.54100
C331        C  0.14348715  0.22612070  0.18893412     0.09000
C332        C  0.11265250  0.22208617  0.19290216     0.20000
C333        C  0.10820435  0.25066451  0.14606771    -0.54800
C334        C  0.10131145  0.22531696  0.15964505     0.09100
C335        C  0.10820357  0.27268249  0.19568546    -0.54400
C336        C  0.10297232  0.24813523  0.21152517     0.09700
H337        H  0.17148969  0.25606699  0.16973870     0.14200
H338        H  0.10773157  0.20151535  0.20323373     0.00000
H339        H  0.10116574  0.25536791  0.12313496     0.14500
H340        H  0.10341535  0.29295111  0.20568488     0.14300
C341        C  0.21044188  0.35416601  0.13728711     0.86100
C342        C  0.22769751  0.32756743  0.13585577    -0.54100
C343        C  0.25351650  0.33134538  0.12570175     0.09000
C344        C  0.26123109  0.36170424  0.11880296     0.20000
C345        C  0.22813337  0.37422839  0.15824482    -0.54800
C346        C  0.25500058  0.37757813  0.14847007     0.09100
C347        C  0.21383323  0.36780084  0.10465744    -0.54400
C348        C  0.24053691  0.37154917  0.09439448     0.09700
H349        H  0.22032216  0.30728482  0.14385574     0.14200
H350        H  0.28287074  0.36385937  0.11323178     0.00000
H351        H  0.22109338  0.38488451  0.17861492     0.14500
H352        H  0.19627233  0.37294092  0.09044002     0.14300
C353        C  0.27139454  0.12560381  0.38884176     0.86100
C354        C  0.25267613  0.15129890  0.38877045    -0.54100
C355        C  0.22671431  0.14644543  0.37936687     0.09000
C356        C  0.22095897  0.11600358  0.37017770     0.20000
C357        C  0.25545158  0.10295793  0.40796223    -0.54800
C358        C  0.22895310  0.09832779  0.39827686     0.09100
C359        C  0.26881714  0.11439820  0.35524706    -0.54400
C360        C  0.24237662  0.10926890  0.34512607     0.09700
H361        H  0.25952894  0.17210295  0.39547266     0.14200
H362        H  0.19946919  0.11254231  0.36415518     0.00000
H363        H  0.26387947  0.09149856  0.42724006     0.14500
H364        H  0.28618348  0.11086029  0.34027009     0.14300
C365        C  0.35768585  0.20618318  0.41697594     0.86100
C366        C  0.33514496  0.22851574  0.42053804    -0.54100
C367        C  0.34399385  0.25408252  0.42964763     0.09000
C368        C  0.37495742  0.25576127  0.43506494     0.20000
C369        C  0.37842747  0.22090592  0.39428454    -0.54800
C370        C  0.38764513  0.24678852  0.40425575     0.09100
C371        C  0.37280254  0.20627601  0.44835321    -0.54400
C372        C  0.38135039  0.23208304  0.45825799     0.09700
H373        H  0.31359892  0.22445562  0.41590461     0.14200
H374        H  0.38173281  0.27683061  0.44277976     0.00000
H375        H  0.38436781  0.21324670  0.37192740     0.14500
H376        H  0.37385228  0.18781963  0.46307768     0.14300
C377        C  0.13075413  0.27917195  0.39337094     0.86100
C378        C  0.11493991  0.28281917  0.36264258    -0.54100
C379        C  0.11072674  0.25863911  0.34643621     0.09000
C380        C  0.11891472  0.23209700  0.36482406     0.20000
C381        C  0.11122205  0.25924800  0.41174199    -0.54800
C382        C  0.10526807  0.23425145  0.39713776     0.09100
C383        C  0.15547270  0.26071385  0.38534822    -0.54400
C384        C  0.14950090  0.23649647  0.37079567     0.09700
H385        H  0.10782224  0.30272124  0.35393442     0.14200
H386        H  0.11457733  0.21208475  0.35276051     0.00000
H387        H  0.10294995  0.26391604  0.43426287     0.14500
H388        H  0.17618003  0.26540395  0.39306471     0.14300
C389        C  0.21821857  0.35704644  0.42439508     0.86100
C390        C  0.21866533  0.37517067  0.45374726    -0.54100
C391        C  0.24421003  0.38269280  0.46396343     0.09000
C392        C  0.26740752  0.37206937  0.44266755     0.20000
C393        C  0.23525775  0.37423200  0.39996322    -0.54800
C394        C  0.26107644  0.38206636  0.40979178     0.09100
C395        C  0.23782133  0.33262704  0.43167601    -0.54400
C396        C  0.26307170  0.34035043  0.44149001     0.09700
H397        H  0.20034070  0.37822032  0.46758117     0.14200
H398        H  0.28837801  0.37810386  0.44999267     0.00000
H399        H  0.22938612  0.37769620  0.37633389     0.14500
H400        H  0.23266457  0.31078462  0.42748710     0.14300
C401        C  0.13545701  0.70495337  0.16541634     0.86100
C402        C  0.11966953  0.70362069  0.19596431    -0.54100
C403        C  0.10882590  0.72837899  0.20579501     0.09000
C404        C  0.11496639  0.75311032  0.18358567     0.20000
C405        C  0.11497839  0.71907313  0.14189453    -0.54800
C406        C  0.10415368  0.74439707  0.15195487     0.09100
C407        C  0.15662372  0.72839617  0.17011800    -0.54400
C408        C  0.14606201  0.75343757  0.17868201     0.09700
H409        H  0.11909555  0.68467496  0.20993087     0.14200
H410        H  0.10692048  0.77367385  0.19120677     0.00000
H411        H  0.11142173  0.71177681  0.11869260     0.14500
H412        H  0.17845330  0.72564272  0.16597979     0.14300
C413        C  0.21741177  0.61919971  0.13510919     0.86100
C414        C  0.21395700  0.60404282  0.10384929    -0.54100
C415        C  0.23777608  0.59812363  0.08877036     0.09000
C416        C  0.26367143  0.60399769  0.10843504     0.20000
C417        C  0.23463124  0.59788837  0.15415474    -0.54800
C418        C  0.25941700  0.59063283  0.14087573     0.09100
C419        C  0.23781688  0.64317929  0.12819606    -0.54400
C420        C  0.26181351  0.63527046  0.11473950     0.09700
H421        H  0.19473735  0.60020428  0.09240243     0.14200
H422        H  0.28322391  0.59782140  0.09718097     0.00000
H423        H  0.22886936  0.59056650  0.17690091     0.14500
H424        H  0.23437380  0.66467716  0.13548875     0.14300
C425        C  0.35841289  0.76413577  0.14351519     0.86100
C426        C  0.33691620  0.74074157  0.13979735    -0.54100
C427        C  0.34680550  0.71591239  0.12960797     0.09000
C428        C  0.37752211  0.71589547  0.12322426     0.20000
C429        C  0.37996995  0.74970630  0.16537260    -0.54800
C430        C  0.38987481  0.72430924  0.15451171     0.09100
C431        C  0.37349001  0.76561892  0.11234156    -0.54400
C432        C  0.38226636  0.74057301  0.10079769     0.09700
H433        H  0.31528450  0.74355159  0.14511305     0.14200
H434        H  0.38499752  0.69547255  0.11434898     0.00000
H435        H  0.38578283  0.75679813  0.18794923     0.14500
H436        H  0.37294489  0.78437932  0.09799298     0.14300
C437        C  0.27509069  0.85161989  0.16846121     0.86100
C438        C  0.25314085  0.82866648  0.17451656    -0.54100
C439        C  0.22896642  0.83764351  0.18742284     0.09000
C440        C  0.22880454  0.86891663  0.19354207     0.20000
C441        C  0.25924200  0.87337550  0.14860728    -0.54800
C442        C  0.23450819  0.88171805  0.16125018     0.09100
C443        C  0.27804135  0.86702655  0.19951003    -0.54400
C444        C  0.25431995  0.87356992  0.21396576     0.09700
H445        H  0.25600747  0.80699200  0.16754014     0.14200
H446        H  0.20963760  0.87707806  0.20363035     0.00000
H447        H  0.26555184  0.87996056  0.12576594     0.14500
H448        H  0.29740421  0.87177030  0.21113769     0.14300
C449        C  0.13199652  0.70141151  0.37635894     0.86100
C450        C  0.15547262  0.72177996  0.36948244    -0.54100
C451        C  0.14782797  0.74710788  0.35878104     0.09000
C452        C  0.11702047  0.75125943  0.35661378     0.20000
C453        C  0.11315751  0.71829975  0.39913907    -0.54800
C454        C  0.10577682  0.74454189  0.38875094     0.09100
C455        C  0.11488933  0.70145320  0.34607207    -0.54400
C456        C  0.10699620  0.72769272  0.33517995     0.09700
H457        H  0.17682265  0.71711410  0.37466915     0.14200
H458        H  0.11245350  0.77285060  0.35038659     0.00000
H459        H  0.10551901  0.71130624  0.42108788     0.14500
H460        H  0.11134213  0.68223740  0.33343857     0.14300
C461        C  0.22084196  0.62142157  0.40607355     0.86100
C462        C  0.24049584  0.64632477  0.41071039    -0.54100
C463        C  0.26573965  0.63943455  0.42167890     0.09000
C464        C  0.26905366  0.60835632  0.42945536     0.20000
C465        C  0.23788253  0.60022380  0.38641172    -0.54800
C466        C  0.26324681  0.59375141  0.39875751     0.09100
C467        C  0.22010439  0.60641042  0.43790994    -0.54400
C468        C  0.24508694  0.60108566  0.45105545     0.09700
H469        H  0.23452251  0.66781119  0.40605922     0.14200
H470        H  0.28948670  0.60331810  0.43909422     0.00000
H471        H  0.23135807  0.59125431  0.36487955     0.14500
H472        H  0.20139233  0.60184453  0.45055349     0.14300
C473        C  0.36407409  0.77002205  0.42965400     0.86100
C474        C  0.37536547  0.77130109  0.46239924    -0.54100
C475        C  0.38195404  0.74609967  0.47496076     0.09000
C476        C  0.37978918  0.72120030  0.45207955     0.20000
C477        C  0.38700000  0.75515179  0.41049214    -0.54800
C478        C  0.39481034  0.72910883  0.42172909     0.09100
C479        C  0.34153058  0.74731780  0.43189305    -0.54400
C480        C  0.34980735  0.72151021  0.44229089     0.09700
H481        H  0.37469795  0.78948100  0.47690576     0.14200
H482        H  0.38717102  0.70124800  0.46186746     0.00000
H483        H  0.39387374  0.76300387  0.38822449     0.14500
H484        H  0.32073546  0.75091208  0.42379369     0.14300
C485        C  0.27590603  0.84511290  0.38905271     0.86100
C486        C  0.27652028  0.86292662  0.35943861    -0.54100
C487        C  0.25144738  0.87067476  0.34790605     0.09000
C488        C  0.22772252  0.86231276  0.36925565     0.20000
C489        C  0.26032793  0.86504785  0.41211000    -0.54800
C490        C  0.23490773  0.87422681  0.40117591     0.09100
C491        C  0.25466698  0.82190846  0.38406524    -0.54400
C492        C  0.23004112  0.83070176  0.37351665     0.09700
H493        H  0.29529756  0.86729579  0.34692833     0.14200
H494        H  0.20724467  0.86848539  0.36057247     0.00000
H495        H  0.26781214  0.87045627  0.43484889     0.14500
H496        H  0.25846278  0.80002048  0.38971827     0.14300
In497      In  0.66869169  0.40782186  0.19959456     1.36900
C498        C  0.62871583  0.36775010  0.19367321     0.77200
O499        O  0.68846121  0.39280602  0.15436638    -0.61200
O500        O  0.71218759  0.39068416  0.19496928    -0.52200
C501        C  0.66735858  0.46469056  0.19054592     0.69900
O502        O  0.64597173  0.44971805  0.19021430    -0.47000
C503        C  0.67046965  0.41098219  0.26136893     0.74600
O504        O  0.62865005  0.39012056  0.17775133    -0.58900
O505        O  0.68997227  0.40130060  0.24551739    -0.49000
O506        O  0.64918717  0.36586809  0.21122686    -0.55300
C507        C  0.71110546  0.38576170  0.16641698     0.84800
O508        O  0.68901862  0.45043061  0.19211703    -0.57200
O509        O  0.65021034  0.41903410  0.24575701    -0.60500
In510      In  0.67025106  0.55238798  0.20485215     1.36900
C511        C  0.63021777  0.59289326  0.20108317     0.77200
O512        O  0.65425585  0.53939374  0.25168888    -0.61200
O513        O  0.69200675  0.56140025  0.24969731    -0.52200
C514        C  0.66763003  0.49607536  0.19226010     0.69900
O515        O  0.64652715  0.51134163  0.19402181    -0.47000
C516        C  0.71253830  0.57364929  0.17119875     0.74600
O517        O  0.63057949  0.57185807  0.18331702    -0.58900
O518        O  0.71491797  0.56681221  0.19919548    -0.49000
O519        O  0.65036959  0.59340631  0.21914314    -0.55300
C520        C  0.67364054  0.55052405  0.26640887     0.84800
O521        O  0.68955913  0.50978583  0.19482466    -0.57200
O522        O  0.68886991  0.56896365  0.16040861    -0.60500
In523      In  0.42725560  0.66005428  0.20716677     1.36900
C524        C  0.38817819  0.61926365  0.19706879     0.77200
O525        O  0.43596813  0.64215177  0.25448500    -0.61200
O526        O  0.42136478  0.68385385  0.25225141    -0.52200
C527        C  0.48299086  0.65651590  0.19897803     0.69900
O528        O  0.46758457  0.63523108  0.19943354    -0.47000
C529        C  0.40551287  0.70304536  0.17325201     0.74600
O530        O  0.40950089  0.62152860  0.18052596    -0.58900
O531        O  0.40750677  0.70369081  0.20225965    -0.49000
O532        O  0.38731453  0.63722041  0.21828243    -0.55300
C533        C  0.42929982  0.66385919  0.26915696     0.84800
O534        O  0.46982526  0.67919702  0.20007052    -0.57200
O535        O  0.41576021  0.68114634  0.16158321    -0.60500
In536      In  0.56926026  0.65622634  0.20990099     1.36900
C537        C  0.60829430  0.61504786  0.20243709     0.77200
O538        O  0.58507095  0.67645946  0.16553744    -0.61200
O539        O  0.58313535  0.70177557  0.20534628    -0.52200
C540        C  0.51371918  0.65560563  0.19983143     0.69900
O541        O  0.52799991  0.63349004  0.20019271    -0.47000
C542        C  0.56920224  0.65848515  0.27166701     0.74600
O543        O  0.58750197  0.61685917  0.18503294    -0.58900
O544        O  0.58039713  0.67703532  0.25505632    -0.49000
O545        O  0.60892448  0.63399440  0.22252047    -0.55300
C546        C  0.58983885  0.70021697  0.17729638     0.84800
O547        O  0.52793010  0.67746681  0.20252211    -0.57200
O548        O  0.55763527  0.63917271  0.25677868    -0.60500
In549      In  0.32313481  0.41184134  0.19664066     1.36900
C550        C  0.36476869  0.37248152  0.19133611     0.77200
O551        O  0.34042708  0.42615252  0.24201362    -0.61200
O552        O  0.30564280  0.39934356  0.24297635    -0.52200
C553        C  0.32466845  0.46899611  0.18695251     0.69900
O554        O  0.34442358  0.45313746  0.17964650    -0.47000
C555        C  0.27827898  0.39149728  0.16559118     0.74600
O556        O  0.36292857  0.39338279  0.17324487    -0.58900
O557        O  0.27759228  0.39805089  0.19367937    -0.49000
O558        O  0.34544269  0.37171016  0.21063452    -0.55300
C559        C  0.32322048  0.41285416  0.25820096     0.84800
O560        O  0.30423517  0.45554802  0.19691414    -0.57200
O561        O  0.30149920  0.39602224  0.15336489    -0.60500
In562      In  0.32528071  0.55775270  0.19437541     1.36900
C563        C  0.36576264  0.59782446  0.19319666     0.77200
O564        O  0.30612533  0.57238216  0.14821266    -0.61200
O565        O  0.28107424  0.57291802  0.18780751    -0.52200
C566        C  0.32514963  0.50056092  0.18659697     0.69900
O567        O  0.34498784  0.51581682  0.17769024    -0.47000
C568        C  0.32676136  0.55669851  0.25603515     0.74600
O569        O  0.36685709  0.57611749  0.17635792    -0.58900
O570        O  0.30682745  0.56682733  0.24110482    -0.49000
O571        O  0.34365926  0.59960824  0.20814034    -0.55300
C572        C  0.28265294  0.57784856  0.15922946     0.84800
O573        O  0.30551427  0.51460927  0.19735667    -0.57200
O574        O  0.34537602  0.54618124  0.23952163    -0.60500
In575      In  0.56773235  0.30433165  0.19865423     1.36900
C576        C  0.60692062  0.34547358  0.19338198     0.77200
O577        O  0.55719764  0.32392985  0.24451251    -0.61200
O578        O  0.57859846  0.28518514  0.24468518    -0.52200
C579        C  0.51199156  0.30577343  0.18937990     0.69900
O580        O  0.52796522  0.32398826  0.17785200    -0.47000
C581        C  0.58749196  0.25978923  0.16597067     0.74600
O582        O  0.58440233  0.34669418  0.17889612    -0.58900
O583        O  0.58037578  0.25832793  0.19387484    -0.49000
O584        O  0.60933586  0.32337880  0.20911995    -0.55300
C585        C  0.56811089  0.30467898  0.26031923     0.84800
O586        O  0.52455078  0.28693824  0.20403876    -0.57200
O587        O  0.58344315  0.28374322  0.15422399    -0.60500
In588      In  0.42525347  0.30732156  0.19489565     1.36900
C589        C  0.38695230  0.35025612  0.19125360     0.77200
O590        O  0.41294345  0.28677410  0.14915764    -0.61200
O591        O  0.40518557  0.26370673  0.18970918    -0.52200
C592        C  0.48120631  0.30628965  0.18802890     0.69900
O593        O  0.46670998  0.32610027  0.17732459    -0.47000
C594        C  0.42829469  0.30643287  0.25622901     0.74600
O595        O  0.40746270  0.34898444  0.17323024    -0.58900
O596        O  0.41695809  0.28704220  0.24107906    -0.49000
O597        O  0.38639276  0.33010104  0.21011049    -0.55300
C598        C  0.40251054  0.26484298  0.16082382     0.84800
O599        O  0.46705218  0.28684457  0.19968296    -0.57200
O600        O  0.43800341  0.32616756  0.24003736    -0.60500
In601      In  0.42810314  0.30884522  0.35161829     1.36900
C602        C  0.38992691  0.35120014  0.35594294     0.77200
O603        O  0.44011968  0.32635390  0.30509972    -0.61200
O604        O  0.41883234  0.28750384  0.30651264    -0.52200
C605        C  0.48348286  0.30813076  0.36277542     0.69900
O606        O  0.46888161  0.32959923  0.36748373    -0.47000
C607        C  0.40442663  0.26729648  0.38582091     0.74600
O608        O  0.41103097  0.35036274  0.37292794    -0.58900
O609        O  0.40954348  0.26477668  0.35747417    -0.49000
O610        O  0.38878021  0.33098275  0.33745085    -0.55300
C611        C  0.42936661  0.30659719  0.29009676     0.84800
O612        O  0.46967254  0.28726015  0.35424804    -0.57200
O613        O  0.41270454  0.29029613  0.39686378    -0.60500
In614      In  0.56992469  0.30579225  0.35582467     1.36900
C615        C  0.60760306  0.34839564  0.36099531     0.77200
O616        O  0.58697921  0.28550695  0.39968084    -0.61200
O617        O  0.58378277  0.25970564  0.36063259    -0.52200
C618        C  0.51419837  0.30730166  0.36420835     0.69900
O619        O  0.52949873  0.32782915  0.37080589    -0.47000
C620        C  0.56874700  0.30502258  0.29420399     0.74600
O621        O  0.58664878  0.34691670  0.37831277    -0.58900
O622        O  0.58075928  0.28647665  0.30998270    -0.49000
O623        O  0.60930328  0.32814747  0.34254714    -0.55300
C624        C  0.59135928  0.26152107  0.38829139     0.84800
O625        O  0.52748977  0.28588850  0.35635379    -0.57200
O626        O  0.55747535  0.32401071  0.30985376    -0.60500
In627      In  0.32967203  0.55820159  0.35147546     1.36900
C628        C  0.36944222  0.59868958  0.36151959     0.77200
O629        O  0.34888048  0.54892630  0.30500757    -0.61200
O630        O  0.30917777  0.56719675  0.30621281    -0.52200
C631        C  0.32919902  0.50090491  0.35951525     0.69900
O632        O  0.34708435  0.51631046  0.37210573    -0.47000
C633        C  0.28571616  0.57876999  0.38230396     0.74600
O634        O  0.37004011  0.57484848  0.37451098    -0.58900
O635        O  0.28617844  0.57556085  0.35357578    -0.49000
O636        O  0.34921047  0.60132541  0.34374912    -0.55300
C637        C  0.32835812  0.55755564  0.28991336     0.84800
O638        O  0.31179498  0.51475812  0.34456685    -0.57200
O639        O  0.30718832  0.57021068  0.39559303    -0.60500
In640      In  0.32632802  0.41228611  0.35347832     1.36900
C641        C  0.36778521  0.37313671  0.35677189     0.77200
O642        O  0.30720860  0.39969980  0.39979435    -0.61200
O643        O  0.28152819  0.39792428  0.36104709    -0.52200
C644        C  0.32834854  0.46943731  0.36006837     0.69900
O645        O  0.34576325  0.45342968  0.37272057    -0.47000
C646        C  0.32406628  0.41270249  0.29205644     0.74600
O647        O  0.36842047  0.39575515  0.37194581    -0.58900
O648        O  0.30655415  0.40001915  0.30852426    -0.49000
O649        O  0.34614474  0.37053537  0.34129200    -0.55300
C650        C  0.28359437  0.39392033  0.38967411     0.84800
O651        O  0.30991257  0.45620966  0.34600006    -0.57200
O652        O  0.34268577  0.42502503  0.30695328    -0.60500
In653      In  0.67393323  0.55483197  0.36175917     1.36900
C654        C  0.63364067  0.59487654  0.36915902     0.77200
O655        O  0.69492442  0.56369076  0.40732788    -0.61200
O656        O  0.71806562  0.57183033  0.36717385    -0.52200
C657        C  0.67186047  0.49828090  0.36887157     0.69900
O658        O  0.65250810  0.51394230  0.37780412    -0.47000
C659        C  0.67408497  0.55179250  0.30026183     0.74600
O660        O  0.63323452  0.57166293  0.38344596    -0.58900
O661        O  0.69300512  0.56362975  0.31516992    -0.49000
O662        O  0.65464435  0.59767244  0.35239553    -0.55300
C663        C  0.71731459  0.57264822  0.39621672     0.84800
O664        O  0.69242233  0.51160236  0.35904650    -0.57200
O665        O  0.65504903  0.54182869  0.31670419    -0.60500
In666      In  0.66981959  0.41093764  0.35694211     1.36900
C667        C  0.62882466  0.37130624  0.36094900     0.77200
O668        O  0.65193899  0.42332367  0.31088534    -0.61200
O669        O  0.68963223  0.40100680  0.31119649    -0.52200
C670        C  0.67068707  0.46712249  0.36720017     0.69900
O671        O  0.65044046  0.45206197  0.37508841    -0.47000
C672        C  0.71226166  0.38972318  0.39042577     0.74600
O673        O  0.62930846  0.39258224  0.37837877    -0.58900
O674        O  0.71347894  0.39453940  0.36187730    -0.49000
O675        O  0.64887554  0.37058940  0.34265723    -0.55300
C676        C  0.67084493  0.41205406  0.29529979     0.84800
O677        O  0.69005602  0.45339221  0.35551493    -0.57200
O678        O  0.68968166  0.39688430  0.40241259    -0.60500
In679      In  0.57196182  0.65808306  0.36717080     1.36900
C680        C  0.61160022  0.61701922  0.37043072     0.77200
O681        O  0.56022377  0.63910423  0.32173858    -0.61200
O682        O  0.58082818  0.67840725  0.32091607    -0.52200
C683        C  0.51592892  0.66016219  0.37464847     0.69900
O684        O  0.53007232  0.63932725  0.38354090    -0.47000
C685        C  0.59223538  0.69881336  0.40452193     0.74600
O686        O  0.58888872  0.61498138  0.38467995    -0.58900
O687        O  0.58991213  0.70170586  0.37569688    -0.49000
O688        O  0.61396786  0.63982933  0.35589424    -0.55300
C689        C  0.57001544  0.65881464  0.30560820     0.84800
O690        O  0.53048539  0.67983405  0.36404130    -0.57200
O691        O  0.58351832  0.67543320  0.41437888    -0.60500
In692      In  0.42900942  0.66419892  0.36528336     1.36900
C693        C  0.39032102  0.62185130  0.36538453     0.77200
O694        O  0.41402192  0.68228915  0.41190869    -0.61200
O695        O  0.41391116  0.70958857  0.37383141    -0.52200
C696        C  0.48502641  0.66160316  0.37420378     0.69900
O697        O  0.46885952  0.64263838  0.38373148    -0.47000
C698        C  0.43016523  0.66507342  0.30322003     0.74600
O699        O  0.41211271  0.62044069  0.38124792    -0.58900
O700        O  0.42121641  0.68544261  0.31884736    -0.49000
O701        O  0.38783156  0.64508310  0.35170713    -0.55300
C702        C  0.40846699  0.70669241  0.40214592     0.84800
O703        O  0.47250565  0.68201193  0.36224266    -0.57200
O704        O  0.43930856  0.64507402  0.31924509    -0.60500
C705        C  0.71981792  0.12000198  0.18111306     0.86100
C706        C  0.74283998  0.14180873  0.18284794    -0.54100
C707        C  0.76766849  0.13114629  0.19029441     0.09000
C708        C  0.76788469  0.09958609  0.19617270     0.20000
C709        C  0.73187726  0.09836167  0.15711992    -0.54800
C710        C  0.75752578  0.08773137  0.16558395     0.09100
C711        C  0.72026357  0.10357420  0.21141868    -0.54400
C712        C  0.74522702  0.09357746  0.21998459     0.09700
H713        H  0.73985984  0.16397830  0.17808008     0.14200
H714        H  0.78838362  0.09179043  0.20321735     0.00000
H715        H  0.72244689  0.09370773  0.13509872     0.14500
H716        H  0.70235802  0.10220313  0.22629475     0.14300
C717        C  0.63224537  0.19506475  0.14698884     0.86100
C718        C  0.65532365  0.21719111  0.14394740    -0.54100
C719        C  0.64762727  0.24189510  0.13107422     0.09000
C720        C  0.61816282  0.24211616  0.11932682     0.20000
C721        C  0.60882808  0.21126437  0.16348362    -0.54800
C722        C  0.60166878  0.23629930  0.14926981     0.09100
C723        C  0.62194894  0.19149219  0.11383670    -0.54400
C724        C  0.61615512  0.21577725  0.09849390     0.09700
H725        H  0.67606380  0.21411081  0.15244588     0.14200
H726        H  0.61261592  0.26201390  0.10747580     0.00000
H727        H  0.60108110  0.20515189  0.18604391     0.14500
H728        H  0.62138422  0.17179227  0.10205344     0.14300
C729        C  0.77603886  0.34316966  0.14316748     0.86100
C730        C  0.77883677  0.35680136  0.11110470    -0.54100
C731        C  0.75466659  0.36392167  0.09706785     0.09000
C732        C  0.72922902  0.35752116  0.11731794     0.20000
C733        C  0.75866837  0.36421360  0.16221755    -0.54800
C734        C  0.73387806  0.37138528  0.14906625     0.09100
C735        C  0.75593867  0.31870398  0.13740810    -0.54400
C736        C  0.73158839  0.32609489  0.12418089     0.09700
H737        H  0.79755253  0.35638917  0.09782101     0.14200
H738        H  0.70941361  0.36343285  0.10657120     0.00000
H739        H  0.76450553  0.37094439  0.18517952     0.14500
H740        H  0.75995681  0.29734238  0.14497295     0.14300
C741        C  0.85827524  0.26164451  0.18292451     0.86100
C742        C  0.87770447  0.26348514  0.21080540    -0.54100
C743        C  0.88973581  0.23864523  0.21948109     0.09000
C744        C  0.88186969  0.21419453  0.19808571     0.20000
C745        C  0.87663541  0.24843427  0.15667436    -0.54800
C746        C  0.88876798  0.22307412  0.16502925     0.09100
C747        C  0.83849395  0.23762690  0.19022929    -0.54400
C748        C  0.85066394  0.21332107  0.19865887     0.09700
H749        H  0.87880703  0.28228968  0.22472615     0.14200
H750        H  0.89120693  0.19376923  0.20416680     0.00000
H751        H  0.87800964  0.25685336  0.13343122     0.14500
H752        H  0.81639515  0.23924051  0.18740121     0.14300
C753        C  0.71484213  0.11423161  0.39060531     0.86100
C754        C  0.73314770  0.09557000  0.41198989    -0.54100
C755        C  0.75975090  0.09232313  0.40191691     0.09000
C756        C  0.76515961  0.10655627  0.37077637     0.20000
C757        C  0.73136385  0.14112709  0.38537738    -0.54800
C758        C  0.75719907  0.13711636  0.37519297     0.09100
C759        C  0.71716154  0.09858277  0.35922633    -0.54400
C760        C  0.74365779  0.09433788  0.34847708     0.09700
H761        H  0.72599907  0.08509832  0.43257106     0.14200
H762        H  0.78673260  0.10523850  0.36412813     0.00000
H763        H  0.72371362  0.16186638  0.39117632     0.14500
H764        H  0.69939398  0.09166044  0.34652883     0.14300
C765        C  0.62936449  0.19342357  0.41759656     0.86100
C766        C  0.61678644  0.19738613  0.45030987    -0.54100
C767        C  0.61374117  0.22463854  0.45940002     0.09000
C768        C  0.62245238  0.24578407  0.43463056     0.20000
C769        C  0.60928329  0.21084010  0.39646925    -0.54800
C770        C  0.60602111  0.23855854  0.40561191     0.09100
C771        C  0.65532309  0.21149857  0.41709618    -0.54400
C772        C  0.65206111  0.23799550  0.42679955     0.09700
H773        H  0.61302120  0.18006172  0.46612206     0.14200
H774        H  0.62020525  0.26792952  0.44209119     0.00000
H775        H  0.59869133  0.20303462  0.37646427     0.14500
H776        H  0.67501448  0.20389829  0.40881311     0.14300
C777        C  0.77737926  0.34750039  0.41383365     0.86100
C778        C  0.75922756  0.32126708  0.41426161    -0.54100
C779        C  0.73320754  0.32518482  0.42406621     0.09000
C780        C  0.72745930  0.35521983  0.43559177     0.20000
C781        C  0.76035290  0.37001414  0.39616584    -0.54800
C782        C  0.73410538  0.37389459  0.40738423     0.09100
C783        C  0.77623257  0.35772401  0.44762383    -0.54400
C784        C  0.75046700  0.36148534  0.45920775     0.09700
H785        H  0.76628257  0.30087956  0.40639036     0.14200
H786        H  0.70639485  0.35790971  0.44491833     0.00000
H787        H  0.76793900  0.38165220  0.37645479     0.14500
H788        H  0.79372027  0.36074685  0.46249595     0.14300
C789        C  0.86032082  0.26674888  0.38873400     0.86100
C790        C  0.83607661  0.24633131  0.38840950    -0.54100
C791        C  0.84227998  0.21983129  0.38053462     0.09000
C792        C  0.87280411  0.21512737  0.37351300     0.20000
C793        C  0.88113029  0.25194878  0.41119322    -0.54800
C794        C  0.88762289  0.22479927  0.40264634     0.09100
C795        C  0.87404479  0.26348406  0.35689927    -0.54400
C796        C  0.88077014  0.23665830  0.34820426     0.09700
H797        H  0.81518401  0.25243939  0.39414955     0.14200
H798        H  0.87716535  0.19309756  0.36893664     0.00000
H799        H  0.88974828  0.26077175  0.43181262     0.14500
H800        H  0.87698202  0.28154818  0.34192707     0.14300
C801        C  0.82866520  0.30389242  0.36839967    -0.06200
C802        C  0.84742623  0.29659792  0.39204135    -0.00200
C803        C  0.84957563  0.31569353  0.41699559    -0.08800
C804        C  0.82881797  0.33631025  0.42074837    -0.06200
C805        C  0.80587050  0.33842907  0.40078640    -0.00200
C806        C  0.80818460  0.32442873  0.37183592    -0.08700
C807        C  0.78868302  0.32943132  0.34478943     0.61700
H808        H  0.82825918  0.29100972  0.34792962     0.12400
H809        H  0.82997344  0.34949094  0.44072147     0.12400
C810        C  0.87277160  0.31478085  0.44006116     0.61900
F811        F  0.79645745  0.31454967  0.31883573    -0.23300
F812        F  0.78892776  0.35741003  0.33661874    -0.20600
F813        F  0.76226442  0.32128499  0.35193031    -0.20300
F814        F  0.89740490  0.31036966  0.42494355    -0.20300
F815        F  0.86790823  0.29385617  0.46155818    -0.20600
F816        F  0.87512136  0.33987210  0.45581211    -0.23300
C817        C  0.71921031  0.27680879  0.43833760    -0.06200
C818        C  0.71311101  0.30185446  0.42266271    -0.00200
C819        C  0.68935311  0.30288016  0.40414123    -0.08800
C820        C  0.66960885  0.28203629  0.40757441    -0.06200
C821        C  0.67440180  0.25846869  0.42575084    -0.00200
C822        C  0.70016854  0.25481643  0.44038045    -0.08700
C823        C  0.70879526  0.22804973  0.45688448     0.61700
H824        H  0.73900097  0.27452180  0.44921363     0.12400
H825        H  0.65041120  0.28368788  0.39510567     0.12400
C826        C  0.68425589  0.32511770  0.38030842     0.61900
F827        F  0.72767028  0.23381669  0.47982094    -0.23300
F828        F  0.72097478  0.21022132  0.43583189    -0.20600
F829        F  0.68684319  0.21458853  0.47072546    -0.20300
F830        F  0.70839932  0.33378252  0.36656741    -0.20300
F831        F  0.67136900  0.34692668  0.39490673    -0.20600
F832        F  0.66750823  0.31527045  0.35694371    -0.23300
C833        C  0.79365341  0.16109788  0.40261593    -0.06200
C834        C  0.77772980  0.15946461  0.37602364    -0.00200
C835        C  0.78153127  0.17870879  0.35162969    -0.08800
C836        C  0.80352195  0.19770224  0.35348537    -0.06200
C837        C  0.82063132  0.19826083  0.37949809    -0.00200
C838        C  0.81449277  0.18102531  0.40529900    -0.08700
C839        C  0.82964445  0.18357269  0.43552579     0.61700
H840        H  0.78942508  0.14662531  0.42140479     0.12400
H841        H  0.80747473  0.21235349  0.33479612     0.12400
C842        C  0.76230067  0.17912801  0.32424007     0.61900
F843        F  0.81856620  0.16650925  0.45833196    -0.23300
F844        F  0.82878796  0.21093414  0.44590348    -0.20600
F845        F  0.85632737  0.17558837  0.43096501    -0.20300
F846        F  0.73555935  0.18243752  0.33419933    -0.20300
F847        F  0.76450491  0.15426324  0.30814840    -0.20600
F848        F  0.76811767  0.20111748  0.30450239    -0.23300
C849        C  0.66529994  0.12958540  0.37931736    -0.06200
C850        C  0.68566418  0.12381393  0.40196015    -0.00200
C851        C  0.68107407  0.13592969  0.43181540    -0.08800
C852        C  0.65787738  0.15315806  0.43654429    -0.06200
C853        C  0.64066868  0.16292374  0.41249325    -0.00200
C854        C  0.64330891  0.14884602  0.38379645    -0.08700
C855        C  0.62384078  0.15430584  0.35732617     0.61700
H856        H  0.66805240  0.12149450  0.35639400     0.12400
H857        H  0.65556973  0.16278353  0.45884625     0.12400
C858        C  0.70098166  0.13303279  0.45892410     0.61900
F859        F  0.62597177  0.13397128  0.33474175    -0.23300
F860        F  0.62983240  0.17990426  0.34382464    -0.20600
F861        F  0.59708221  0.15382932  0.36802479    -0.20300
F862        F  0.69387649  0.14987601  0.48364398    -0.20300
F863        F  0.72721889  0.14090317  0.45043847    -0.20600
F864        F  0.70077989  0.10578705  0.46975302    -0.23300
C865        C  0.89335048  0.20842838  0.26643444    -0.06200
C866        C  0.90012887  0.23383035  0.25176203    -0.00200
C867        C  0.91135797  0.25523795  0.27025730    -0.08800
C868        C  0.90763997  0.25359292  0.30239619    -0.06200
C869        C  0.89336556  0.23111768  0.31666951    -0.00200
C870        C  0.88950722  0.20640452  0.29858742    -0.08700
C871        C  0.88094921  0.17800018  0.31148658     0.61700
H872        H  0.88751141  0.19078342  0.25258823     0.12400
H873        H  0.91506919  0.27082634  0.31626590     0.12400
C874        C  0.92779604  0.27965093  0.25744361     0.61900
F875        F  0.87948529  0.15756054  0.28893550    -0.23300
F876        F  0.85526445  0.17964487  0.32466969    -0.20600
F877        F  0.90020140  0.16894331  0.33266242    -0.20300
F878        F  0.91419650  0.30449803  0.26334872    -0.20300
F879        F  0.93242126  0.27742415  0.22604358    -0.20600
F880        F  0.95308288  0.28038669  0.27182823    -0.23300
C881        C  0.73696394  0.38076683  0.01234525    -0.06200
C882        C  0.75005510  0.35840508  0.99716970    -0.00200
C883        C  0.76424687  0.33798579  0.01535557    -0.08800
C884        C  0.76586148  0.34183104  0.04727358    -0.06200
C885        C  0.75338318  0.36435270  0.06249698    -0.00200
C886        C  0.73882259  0.38442955  0.04473127    -0.08700
C887        C  0.72569163  0.41018256  0.05881995     0.61700
H888        H  0.72630959  0.39630209  0.99854026     0.12400
H889        H  0.77648614  0.32607258  0.06083962     0.12400
C890        C  0.77813615  0.31133858  0.00366972     0.61900
F891        F  0.73675854  0.41669158  0.08725877    -0.23300
F892        F  0.69786284  0.40558202  0.06222449    -0.20600
F893        F  0.72964628  0.43318235  0.03969121    -0.20300
F894        F  0.74270313  0.29529335  0.52833902    -0.20300
F895        F  0.76291611  0.30624330  0.48355447    -0.20600
F896        F  0.76729252  0.28830463  0.01888142    -0.23300
C897        C  0.79913872  0.31670141  0.18668474    -0.06200
C898        C  0.80256103  0.33150430  0.15894109    -0.00200
C899        C  0.82925521  0.33011820  0.14545395    -0.08800
C900        C  0.84642744  0.30685719  0.15248684    -0.06200
C901        C  0.84102081  0.28891650  0.17776516    -0.00200
C902        C  0.81863214  0.29719754  0.19771546    -0.08700
C903        C  0.81319218  0.28727981  0.23073425     0.61700
H904        H  0.78030745  0.31979598  0.19960029     0.12400
H905        H  0.86537850  0.30429408  0.13975160     0.12400
C906        C  0.84272943  0.35494931  0.12958948     0.61900
F907        F  0.83116870  0.26762761  0.24188640    -0.23300
F908        F  0.78702062  0.27616269  0.23287045    -0.20600
F909        F  0.81479532  0.31023613  0.25006057    -0.20300
F910        F  0.86805446  0.35989635  0.14290252    -0.20300
F911        F  0.82754139  0.37924299  0.13303953    -0.20600
F912        F  0.84666606  0.34931295  0.09862791    -0.23300
C913        C  0.63263197  0.20328043  0.01301109    -0.06200
C914        C  0.61110373  0.21701511  0.99801025    -0.00200
C915        C  0.59076753  0.23048521  0.01613598    -0.08800
C916        C  0.59373114  0.23072828  0.04875404    -0.06200
C917        C  0.61535817  0.21655404  0.06373172    -0.00200
C918        C  0.63553724  0.20285154  0.04511965    -0.08700
C919        C  0.66047109  0.18725968  0.05765713     0.61700
H920        H  0.64785868  0.19281881  0.99893467     0.12400
H921        H  0.57841763  0.24114802  0.06277136     0.12400
C922        C  0.56530746  0.24358720  0.00216138     0.61900
F923        F  0.65326468  0.16003018  0.06507021    -0.23300
F924        F  0.67133040  0.20051625  0.08304227    -0.20600
F925        F  0.68128598  0.18585457  0.03592648    -0.20300
F926        F  0.54359299  0.22091582  0.51745268    -0.20300
F927        F  0.56632118  0.18013962  0.51247560    -0.20600
F928        F  0.55945392  0.23265426  0.97340911    -0.23300
C929        C  0.67413659  0.27607598  0.10120601    -0.06200
C930        C  0.66598704  0.26640341  0.13031151    -0.00200
C931        C  0.67769704  0.27827845  0.15729823    -0.08800
C932        C  0.69835750  0.29839791  0.15379809    -0.06200
C933        C  0.70776773  0.30683090  0.12471256    -0.00200
C934        C  0.69533572  0.29581752  0.09787363    -0.08700
C935        C  0.70601057  0.30272022  0.06606754     0.61700
H936        H  0.66496325  0.26658417  0.08102617     0.12400
H937        H  0.70777251  0.30730274  0.17421038     0.12400
C938        C  0.66983744  0.27096392  0.19033402     0.61900
F939        F  0.69154430  0.28906409  0.04322409    -0.23300
F940        F  0.73300724  0.29433863  0.06436678    -0.20600
F941        F  0.70391550  0.33111323  0.06052145    -0.20300
F942        F  0.69221394  0.25911454  0.20498981    -0.20300
F943        F  0.64802660  0.25271660  0.19277131    -0.20600
F944        F  0.66270357  0.29525162  0.20570511    -0.23300
C945        C  0.72884361  0.06899017  0.30025091    -0.06200
C946        C  0.74993729  0.08240699  0.31679620    -0.00200
C947        C  0.77468667  0.08804216  0.30021711    -0.08800
C948        C  0.77313284  0.09147632  0.26803935    -0.06200
C949        C  0.74993024  0.08267434  0.25178459    -0.00200
C950        C  0.72975699  0.06705261  0.26791687    -0.08700
C951        C  0.70961771  0.04781546  0.25191851     0.61700
H952        H  0.71157999  0.05982091  0.31238230     0.12400
H953        H  0.79046951  0.10036150  0.25574816     0.12400
C954        C  0.80312026  0.08384078  0.31350427     0.61900
F955        F  0.70968014  0.02193409  0.26648989    -0.23300
F956        F  0.71657924  0.04351533  0.22130315    -0.20600
F957        F  0.68350792  0.05894760  0.25352930    -0.20300
F958        F  0.80229632  0.06668090  0.33934986    -0.20300
F959        F  0.81490264  0.10945669  0.32035337    -0.20600
F960        F  0.81976720  0.07046301  0.29220091    -0.23300
C961        C  0.79783281  0.15977286  0.22152150    -0.06200
C962        C  0.79213508  0.14879912  0.19250191    -0.00200
C963        C  0.80770703  0.15737819  0.16641667    -0.08800
C964        C  0.83039121  0.17475283  0.17119851    -0.06200
C965        C  0.83463687  0.18750223  0.19976366    -0.00200
C966        C  0.81776465  0.18049041  0.22521146    -0.08700
C967        C  0.81684524  0.19674268  0.25495355     0.61700
H968        H  0.78469247  0.15416300  0.24086075     0.12400
H969        H  0.84274956  0.18161239  0.15174440     0.12400
C970        C  0.79897436  0.15115086  0.13357787     0.61900
F971        F  0.83858950  0.21469639  0.25854879    -0.23300
F972        F  0.81660575  0.17830452  0.27966815    -0.20600
F973        F  0.79314799  0.21254144  0.25505311    -0.20300
F974        F  0.77350285  0.16278343  0.12803685    -0.20300
F975        F  0.79765685  0.12280907  0.12911695    -0.20600
F976        F  0.81714889  0.16200695  0.11197373    -0.23300
C977        C  0.67295923  0.12706494  0.15478159    -0.06200
C978        C  0.69180865  0.13534978  0.17760634    -0.00200
C979        C  0.68322783  0.15787960  0.19782552    -0.08800
C980        C  0.65999609  0.17392484  0.18985841    -0.06200
C981        C  0.64450744  0.16873684  0.16336153    -0.00200
C982        C  0.64819485  0.14196744  0.14956470    -0.08700
C983        C  0.62484998  0.12598648  0.13484322     0.61700
H984        H  0.67656708  0.10783840  0.14225635     0.12400
H985        H  0.65579954  0.19303722  0.20251126     0.12400
C986        C  0.69829871  0.16909642  0.22621722     0.61900
F987        F  0.60018503  0.14012792  0.13746220    -0.23300
F988        F  0.62175672  0.10047101  0.14981893    -0.20600
F989        F  0.63058949  0.12092875  0.10412175    -0.20300
F990        F  0.71143124  0.19384023  0.21834671    -0.20300
F991        F  0.71730610  0.15131647  0.23903396    -0.20600
F992        F  0.67940292  0.17485451  0.24928029    -0.23300
C993        C  0.33859766  0.79328828  0.38678291    -0.06200
C994        C  0.35066549  0.79705812  0.41558226    -0.00200
C995        C  0.34339147  0.82224953  0.43149209    -0.08800
C996        C  0.31900749  0.83683762  0.42303776    -0.06200
C997        C  0.30438349  0.83068264  0.39585001    -0.00200
C998        C  0.31677787  0.80988112  0.37571110    -0.08700
C999        C  0.30833290  0.80395586  0.34239939     0.61700
H1000       H  0.34536745  0.77527763  0.37374991     0.12400
H1001       H  0.31243075  0.85433288  0.43700333     0.12400
C1002       C  0.36285849  0.83761520  0.45275636     0.61900
F1003       F  0.31215546  0.82764420  0.32463655    -0.23300
F1004       F  0.28168716  0.79457643  0.34069435    -0.20600
F1005       F  0.32421384  0.78332947  0.32876173    -0.20300
F1006       F  0.38952325  0.82816652  0.44942605    -0.20300
F1007       F  0.35429874  0.83478839  0.48306660    -0.20600
F1008       F  0.36311522  0.86590408  0.44536966    -0.23300
C1009       C  0.30315220  0.65838084  0.45329419    -0.06200
C1010       C  0.28859262  0.65953272  0.42542616    -0.00200
C1011       C  0.29825378  0.67701936  0.40113626    -0.08800
C1012       C  0.31967769  0.69555567  0.40748270    -0.06200
C1013       C  0.33256030  0.69636048  0.43641278    -0.00200
C1014       C  0.32626462  0.67528239  0.45857104    -0.08700
C1015       C  0.34446479  0.66849736  0.48602519     0.61700
H1016       H  0.29659532  0.64346606  0.47074294     0.12400
H1017       H  0.32620091  0.71031620  0.38983345     0.12400
C1018       C  0.28693273  0.67617839  0.36847053     0.61900
F1019       F  0.33298646  0.64814412  0.50492142    -0.23300
F1020       F  0.34904235  0.69182014  0.50381440    -0.20600
F1021       F  0.36919391  0.65807878  0.47552476    -0.20300
F1022       F  0.26162130  0.68907355  0.36737120    -0.20300
F1023       F  0.28468644  0.64874008  0.35867923    -0.20600
F1024       F  0.30396060  0.69006067  0.34776411    -0.23300
C1025       C  0.20540326  0.79740573  0.34026935    -0.06200
C1026       C  0.20721552  0.81113089  0.36881871    -0.00200
C1027       C  0.18909804  0.80392488  0.39319283    -0.08800
C1028       C  0.16849755  0.78448155  0.38750514    -0.06200
C1029       C  0.16709866  0.77038310  0.35954557    -0.00200
C1030       C  0.18591050  0.77613934  0.33555537    -0.08700
C1031       C  0.18593691  0.75910355  0.30605531     0.61700
H1032       H  0.22012844  0.80254385  0.32234935     0.12400
H1033       H  0.15389223  0.77909026  0.40549249     0.12400
C1034       C  0.19092873  0.81654594  0.42509257     0.61900
F1035       F  0.20507366  0.76898393  0.28499459    -0.23300
F1036       F  0.16039620  0.76020443  0.29241728    -0.20600
F1037       F  0.19215599  0.73146059  0.31278273    -0.20300
F1038       F  0.17489339  0.80217359  0.44636270    -0.20300
F1039       F  0.18156654  0.84360295  0.42358491    -0.20600
F1040       F  0.21758718  0.81613613  0.43579202    -0.23300
C1041       C  0.16282641  0.66132273  0.36023796    -0.06200
C1042       C  0.14673390  0.67283111  0.38441317    -0.00200
C1043       C  0.15199163  0.66187117  0.41455542    -0.08800
C1044       C  0.17467717  0.64376951  0.41920698    -0.06200
C1045       C  0.19223065  0.63376445  0.39548884    -0.00200
C1046       C  0.18563845  0.64314668  0.36490892    -0.08700
C1047       C  0.20271298  0.63549259  0.33674321     0.61700
H1048       H  0.15897333  0.66916309  0.33721167     0.12400
H1049       H  0.18022664  0.63979416  0.44280670     0.12400
C1050       C  0.13514025  0.66933608  0.44282352     0.61900
F1051       F  0.19472280  0.65008819  0.31055487    -0.23300
F1052       F  0.19954110  0.60731805  0.33049916    -0.20600
F1053       F  0.22999848  0.64177416  0.34155714    -0.20300
F1054       F  0.14089360  0.69651809  0.45169627    -0.20300
F1055       F  0.14095067  0.65210051  0.46780151    -0.20600
F1056       F  0.10757369  0.66577687  0.43653175    -0.23300
C1057       C  0.23912249  0.89435663  0.26408808    -0.06200
C1058       C  0.25317352  0.87275901  0.24852819    -0.00200
C1059       C  0.26402666  0.84985147  0.26627720    -0.08800
C1060       C  0.25885230  0.84940433  0.29782938    -0.06200
C1061       C  0.24830336  0.87219779  0.31370577    -0.00200
C1062       C  0.23718322  0.89488005  0.29677049    -0.08700
C1063       C  0.22347441  0.91919974  0.31296912     0.61700
H1064       H  0.23035789  0.91119515  0.25047215     0.12400
H1065       H  0.26420057  0.83128289  0.31117797     0.12400
C1066       C  0.28103550  0.82542088  0.25370923     0.61900
F1067       F  0.20099345  0.90974650  0.32946696    -0.23300
F1068       F  0.21445355  0.93929904  0.29221095    -0.20600
F1069       F  0.24180483  0.93167553  0.33295832    -0.20300
F1070       F  0.30661401  0.83479097  0.24473635    -0.20300
F1071       F  0.26806065  0.81254438  0.22964956    -0.20600
F1072       F  0.28534911  0.80457319  0.27545907    -0.23300
C1073       C  0.35548707  0.74147618  0.05293197    -0.06200
C1074       C  0.38095889  0.73675633  0.06671818    -0.00200
C1075       C  0.40385615  0.73034511  0.04802161    -0.08800
C1076       C  0.40052492  0.72982211  0.01552609    -0.06200
C1077       C  0.38091008  0.74313415  0.50925320    -0.00200
C1078       C  0.35181500  0.74100732  0.02094066    -0.08700
C1079       C  0.32891998  0.75719427  0.51313691     0.61700
H1080       H  0.33829326  0.74644613  0.06780645     0.12400
H1081       H  0.41796336  0.72574653  0.00068809     0.12400
C1082       C  0.43165504  0.72532019  0.06252998     0.61900
F1083       F  0.30337708  0.74362225  0.03186007    -0.23300
F1084       F  0.32953802  0.78186600  0.49647648    -0.20600
F1085       F  0.30902963  0.76040224  0.53573384    -0.20300
F1086       F  0.45163083  0.72011495  0.04054610    -0.20300
F1087       F  0.43026774  0.70246024  0.08222333    -0.20600
F1088       F  0.43940277  0.74869800  0.07917383    -0.23300
C1089       C  0.32207851  0.79865889  0.12609887    -0.06200
C1090       C  0.34209458  0.79219358  0.14885779    -0.00200
C1091       C  0.34477982  0.81191876  0.17319770    -0.08800
C1092       C  0.32526318  0.83391790  0.17561640    -0.06200
C1093       C  0.30201565  0.83696936  0.15613703    -0.00200
C1094       C  0.30247621  0.82041687  0.12881712    -0.08700
C1095       C  0.28351092  0.82611942  0.10161338     0.61700
H1096       H  0.32130578  0.78537281  0.10587846     0.12400
H1097       H  0.32808196  0.84856297  0.19480855     0.12400
C1098       C  0.36730915  0.81007993  0.19713109     0.61900
F1099       F  0.28908305  0.85245510  0.08973967    -0.23300
F1100       F  0.25630654  0.82453633  0.11022247    -0.20600
F1101       F  0.28736475  0.80711503  0.07793706    -0.20300
F1102       F  0.39243197  0.80658322  0.18279658    -0.20300
F1103       F  0.36182857  0.78808934  0.21710338    -0.20600
F1104       F  0.36911492  0.83418798  0.21473026    -0.23300
C1105       C  0.22891289  0.61373615  0.00230432    -0.06200
C1106       C  0.24754039  0.59981189  0.48559581    -0.00200
C1107       C  0.25331890  0.56979244  0.00797925    -0.08800
C1108       C  0.25231151  0.57341266  0.04046874    -0.06200
C1109       C  0.23836732  0.59613162  0.05410955    -0.00200
C1110       C  0.22600326  0.61669217  0.03427991    -0.08700
C1111       C  0.20677325  0.64017702  0.04461141     0.61700
H1112       H  0.21985839  0.62923568  0.98710383     0.12400
H1113       H  0.26169334  0.55800807  0.05553240     0.12400
C1114       C  0.27537298  0.55451990  0.48589141     0.61900
F1115       F  0.20613256  0.66181302  0.02315507    -0.23300
F1116       F  0.21438612  0.65215645  0.07201077    -0.20600
F1117       F  0.18050520  0.62955125  0.04746624    -0.20300
F1118       F  0.25860380  0.54402810  0.46295228    -0.20300
F1119       F  0.28134911  0.53273029  0.50598389    -0.20600
F1120       F  0.24754714  0.53087367  0.97468013    -0.23300
C1121       C  0.29655792  0.65791484  0.14635607    -0.06200
C1122       C  0.28617950  0.65327273  0.11674098    -0.00200
C1123       C  0.29848759  0.66629197  0.09082157    -0.08800
C1124       C  0.31988667  0.68536826  0.09584179    -0.06200
C1125       C  0.32880435  0.69155045  0.12568404    -0.00200
C1126       C  0.31788470  0.67690234  0.15135262    -0.08700
C1127       C  0.32963641  0.68015197  0.18348909     0.61700
H1128       H  0.28754703  0.64663687  0.16562444     0.12400
H1129       H  0.32900726  0.69646301  0.07661254     0.12400
C1130       C  0.28846767  0.66106241  0.05833811     0.61900
F1131       F  0.31597435  0.66372978  0.20503945    -0.23300
F1132       F  0.32822625  0.70766960  0.19313577    -0.20600
F1133       F  0.35660850  0.67180067  0.18282535    -0.20300
F1134       F  0.26150977  0.66926336  0.05591115    -0.20300
F1135       F  0.29077151  0.63291641  0.05141811    -0.20600
F1136       F  0.30334604  0.67613798  0.03669441    -0.23300
C1137       C  0.10265793  0.75619945  0.25384527    -0.06200
C1138       C  0.09739273  0.73144241  0.23772465    -0.00200
C1139       C  0.08423666  0.70928667  0.25403967    -0.08800
C1140       C  0.08537791  0.70919758  0.28651063    -0.06200
C1141       C  0.09549636  0.73240901  0.30298127    -0.00200
C1142       C  0.09870769  0.75791591  0.28585981    -0.08700
C1143       C  0.09351972  0.78704138  0.29854042     0.61700
H1144       H  0.10959662  0.77469659  0.24167002     0.12400
H1145       H  0.07821071  0.69081988  0.29889553     0.12400
C1146       C  0.06772884  0.68638605  0.23858845     0.61900
F1147       F  0.08152247  0.80392698  0.27624007    -0.23300
F1148       F  0.11798543  0.79952174  0.30698270    -0.20600
F1149       F  0.07528740  0.78602336  0.32306850    -0.20300
F1150       F  0.04172626  0.68567546  0.25147141    -0.20300
F1151       F  0.08015331  0.66070236  0.24340934    -0.20600
F1152       F  0.06466956  0.69091673  0.20723354    -0.23300
C1153       C  0.16709815  0.79190496  0.20798162    -0.06200
C1154       C  0.16320082  0.77887925  0.17951435    -0.00200
C1155       C  0.17713887  0.78905770  0.15297095    -0.08800
C1156       C  0.19747296  0.80933741  0.15694752    -0.06200
C1157       C  0.20367990  0.82029495  0.18601413    -0.00200
C1158       C  0.18657150  0.81339888  0.21165481    -0.08700
C1159       C  0.18876815  0.82758805  0.24279685     0.61700
H1160       H  0.15545208  0.78431515  0.22759208     0.12400
H1161       H  0.20926775  0.81650866  0.13723604     0.12400
C1162       C  0.17025817  0.77949626  0.12044315     0.61900
F1163       F  0.18265096  0.85572756  0.24010922    -0.23300
F1164       F  0.21480196  0.82422922  0.25418282    -0.20600
F1165       F  0.17065851  0.81636398  0.26421301    -0.20300
F1166       F  0.14271417  0.78355739  0.11510042    -0.20300
F1167       F  0.17655910  0.75155862  0.11642129    -0.20600
F1168       F  0.18457630  0.79460680  0.09827240    -0.23300
C1169       C  0.17232566  0.67060985  0.18142028    -0.06200
C1170       C  0.15116171  0.67675250  0.16010202    -0.00200
C1171       C  0.14641892  0.65632355  0.13703009    -0.08800
C1172       C  0.16671124  0.63557676  0.13155755    -0.06200
C1173       C  0.19100440  0.63286416  0.14947410    -0.00200
C1174       C  0.19190682  0.64910902  0.17712382    -0.08700
C1175       C  0.21270620  0.64397572  0.20281754     0.61700
H1176       H  0.17396178  0.68387287  0.20152422     0.12400
H1177       H  0.16317913  0.62204474  0.11226319     0.12400
C1178       C  0.11997584  0.65447284  0.11887419     0.61900
F1179       F  0.21015479  0.66320706  0.22649911    -0.23300
F1180       F  0.23929622  0.64589931  0.19210055    -0.20600
F1181       F  0.20830486  0.61772255  0.21549698    -0.20300
F1182       F  0.12262562  0.66937253  0.09158715    -0.20300
F1183       F  0.09800167  0.66437289  0.13583354    -0.20600
F1184       F  0.11406958  0.62683730  0.11175213    -0.23300
C1185       C  0.14997075  0.32896696  0.38750430    -0.06200
C1186       C  0.14337490  0.30641909  0.40781253    -0.00200
C1187       C  0.15751256  0.30629642  0.43673538    -0.08800
C1188       C  0.17938882  0.32536521  0.44144334    -0.06200
C1189       C  0.18899577  0.34432499  0.41859773    -0.00200
C1190       C  0.17163497  0.34827130  0.39265142    -0.08700
C1191       C  0.17472384  0.37229497  0.36991713     0.61700
H1192       H  0.13956185  0.33082448  0.36580634     0.12400
H1193       H  0.19086867  0.32417409  0.46274650     0.12400
C1194       C  0.15051675  0.28597644  0.46281632     0.61900
F1195       F  0.14965490  0.37914799  0.35696992    -0.23300
F1196       F  0.19221401  0.36452272  0.34629472    -0.20600
F1197       F  0.18419275  0.39614846  0.38446420    -0.20300
F1198       F  0.15390040  0.25853997  0.45347318    -0.20300
F1199       F  0.12380820  0.29042321  0.47229572    -0.20600
F1200       F  0.16707383  0.28977575  0.48838730    -0.23300
C1201       C  0.30899765  0.27861127  0.46065098    -0.06200
C1202       C  0.32483179  0.27772189  0.43358936    -0.00200
C1203       C  0.31964234  0.29712457  0.40951967    -0.08800
C1204       C  0.30123293  0.31896866  0.41490702    -0.06200
C1205       C  0.28562607  0.32008931  0.44193413    -0.00200
C1206       C  0.28870673  0.29912713  0.46493931    -0.08700
C1207       C  0.26998284  0.29608755  0.49283018     0.61700
H1208       H  0.31174021  0.26240050  0.47801012     0.12400
H1209       H  0.29753768  0.33445384  0.39702948     0.12400
C1210       C  0.33244261  0.29440156  0.37783829     0.61900
F1211       F  0.28541980  0.29201732  0.51917683    -0.23300
F1212       F  0.25331183  0.27295494  0.48868105    -0.20600
F1213       F  0.25348046  0.31916187  0.49757559    -0.20300
F1214       F  0.32995775  0.26724797  0.36715195    -0.20300
F1215       F  0.35959329  0.30153842  0.37979590    -0.20600
F1216       F  0.32019377  0.31196977  0.35638858    -0.23300
C1217       C  0.21063406  0.18985408  0.35414207    -0.06200
C1218       C  0.20667097  0.16937894  0.37709781    -0.00200
C1219       C  0.18488700  0.17200804  0.39833735    -0.08800
C1220       C  0.16604586  0.19361593  0.39422855    -0.06200
C1221       C  0.16937899  0.21351465  0.37086459    -0.00200
C1222       C  0.19240559  0.21243968  0.35098211    -0.08700
C1223       C  0.19779645  0.23502725  0.32705105     0.61700
H1224       H  0.22818087  0.18799893  0.33889320     0.12400
H1225       H  0.14877445  0.19553211  0.40983558     0.12400
C1226       C  0.18124968  0.15207501  0.42509872     0.61900
F1227       F  0.17483765  0.23847270  0.30892099    -0.23300
F1228       F  0.21964672  0.22835404  0.30797447    -0.20600
F1229       F  0.20383332  0.25999594  0.34159915    -0.20300
F1230       F  0.16240892  0.16191145  0.44637953    -0.20300
F1231       F  0.20582284  0.14814959  0.44032263    -0.20600
F1232       F  0.17189175  0.12704090  0.41368272    -0.23300
C1233       C  0.32170148  0.14132870  0.37853975    -0.06200
C1234       C  0.30035492  0.13593384  0.40015511    -0.00200
C1235       C  0.30435314  0.14750414  0.43022389    -0.08800
C1236       C  0.32407120  0.16891828  0.43426616    -0.06200
C1237       C  0.34272505  0.17749619  0.41102932    -0.00200
C1238       C  0.34370874  0.16026522  0.38430431    -0.08700
C1239       C  0.36792107  0.15979795  0.36246206     0.61700
H1240       H  0.32132618  0.13144141  0.35629656     0.12400
H1241       H  0.32436668  0.18016811  0.45588963     0.12400
C1242       C  0.28889497  0.13718403  0.45863962     0.61900
F1243       F  0.37025309  0.13380830  0.34855494    -0.23300
F1244       F  0.39206232  0.16430725  0.37839579    -0.20600
F1245       F  0.36452136  0.17973676  0.33955016    -0.20300
F1246       F  0.26108020  0.14165124  0.45566657    -0.20300
F1247       F  0.29733013  0.15064176  0.48524434    -0.20600
F1248       F  0.29415903  0.10897144  0.46293137    -0.23300
C1249       C  0.22776696  0.39722673  0.04567673    -0.06200
C1250       C  0.24736061  0.38079021  0.06147826    -0.00200
C1251       C  0.27093076  0.37221150  0.04388421    -0.08800
C1252       C  0.26892962  0.37210306  0.01150512    -0.06200
C1253       C  0.24678111  0.38413164  0.99591070    -0.00200
C1254       C  0.22825030  0.40053815  0.01332963    -0.08700
C1255       C  0.21011923  0.42295221  0.99926313     0.61700
H1256       H  0.21192800  0.40789580  0.05866534     0.12400
H1257       H  0.28446768  0.36133297  0.99835212     0.12400
C1258       C  0.29886360  0.36489408  0.05721360     0.61900
F1259       F  0.18288133  0.41676302  0.00503911    -0.23300
F1260       F  0.18469624  0.41817985  0.50479849    -0.20600
F1261       F  0.21748754  0.43347534  0.47196597    -0.20300
F1262       F  0.29804048  0.33920980  0.07198044    -0.20300
F1263       F  0.30728767  0.38599232  0.07687460    -0.20600
F1264       F  0.31887397  0.36309474  0.03452599    -0.23300
C1265       C  0.08865155  0.23829188  0.29940446    -0.06200
C1266       C  0.10682786  0.25819670  0.31194853    -0.00200
C1267       C  0.12332675  0.27438539  0.29122466    -0.08800
C1268       C  0.12170344  0.26881108  0.25957072    -0.06200
C1269       C  0.10305547  0.24969643  0.24657095    -0.00200
C1270       C  0.08574717  0.23429374  0.26706603    -0.08700
C1271       C  0.06358825  0.21463834  0.25545093     0.61700
H1272       H  0.07639020  0.22600766  0.31537145     0.12400
H1273       H  0.13550193  0.27980508  0.24425006     0.12400
C1274       C  0.14254376  0.29806096  0.30106721     0.61900
F1275       F  0.07501789  0.19239787  0.23987486    -0.23300
F1276       F  0.04613814  0.22907465  0.23596958    -0.20600
F1277       F  0.04809324  0.20358218  0.27944993    -0.20300
F1278       F  0.15903157  0.28998700  0.32526563    -0.20300
F1279       F  0.12723901  0.32122000  0.30927197    -0.20600
F1280       F  0.15996503  0.30644163  0.27747275    -0.23300
C1281       C  0.15138456  0.31536363  0.18015915    -0.06200
C1282       C  0.13941697  0.29921949  0.15624049    -0.00200
C1283       C  0.14608447  0.30809519  0.12556864    -0.08800
C1284       C  0.16670395  0.32894726  0.12086612    -0.06200
C1285       C  0.18055678  0.34323257  0.14502536    -0.00200
C1286       C  0.17050742  0.33748016  0.17537189    -0.08700
C1287       C  0.17952063  0.35408444  0.20330490     0.61700
H1288       H  0.14715192  0.30926741  0.20366636     0.12400
H1289       H  0.17392619  0.33228795  0.09758436     0.12400
C1290       C  0.13248353  0.29579423  0.09730181     0.61900
F1291       F  0.17680428  0.38242894  0.19717286    -0.23300
F1292       F  0.16341752  0.34837715  0.22896084    -0.20600
F1293       F  0.20628040  0.34748702  0.21080282    -0.20300
F1294       F  0.10435277  0.29863624  0.09996122    -0.20300
F1295       F  0.13980263  0.26796787  0.09412631    -0.20600
F1296       F  0.14016988  0.30957396  0.07042096    -0.23300
C1297       C  0.40017211  0.21861780  0.04058964    -0.06200
C1298       C  0.38380682  0.23914331  0.05513256    -0.00200
C1299       C  0.37341891  0.26133134  0.03605678    -0.08800
C1300       C  0.37476830  0.25831181  0.00376413    -0.06200
C1301       C  0.38727534  0.23531067  0.98960118    -0.00200
C1302       C  0.40267549  0.21671301  0.00829392    -0.08700
C1303       C  0.42196529  0.19466580  0.99556681     0.61700
H1304       H  0.41070782  0.20319725  0.05465419     0.12400
H1305       H  0.36449071  0.27340995  0.98928431     0.12400
C1306       C  0.36067827  0.28813264  0.04821604     0.61900
F1307       F  0.41056983  0.16836327  0.99986439    -0.23300
F1308       F  0.43028118  0.20518368  0.46643128    -0.20600
F1309       F  0.41816712  0.17333229  0.50252753    -0.20300
F1310       F  0.33776546  0.28196108  0.06535085    -0.20300
F1311       F  0.35248330  0.30609483  0.02477828    -0.20600
F1312       F  0.37964906  0.30262728  0.06556897    -0.23300
C1313       C  0.29573451  0.31222441  0.14560195    -0.06200
C1314       C  0.27367463  0.30888262  0.12567846    -0.00200
C1315       C  0.27218410  0.28563443  0.10568346    -0.08800
C1316       C  0.29436628  0.26704778  0.10524270    -0.06200
C1317       C  0.31724926  0.27110522  0.12432574    -0.00200
C1318       C  0.31727796  0.29314095  0.14598976    -0.08700
C1319       C  0.33967047  0.29690549  0.16940100     0.61700
H1320       H  0.29594057  0.33014145  0.16089814     0.12400
H1321       H  0.29414762  0.24914528  0.08993778     0.12400
C1322       C  0.24763458  0.28052201  0.08495111     0.61900
F1323       F  0.33245405  0.31607388  0.19185841    -0.23300
F1324       F  0.36256115  0.30676588  0.15423780    -0.20600
F1325       F  0.34513732  0.27179300  0.18417803    -0.20300
F1326       F  0.24188443  0.30432322  0.06780913    -0.20300
F1327       F  0.22505505  0.27352034  0.10273585    -0.20600
F1328       F  0.25229495  0.25871724  0.06464154    -0.23300
C1329       C  0.21684542  0.10559151  0.26142301    -0.06200
C1330       C  0.23972392  0.09324917  0.24751258    -0.00200
C1331       C  0.25801996  0.07804539  0.26657115    -0.08800
C1332       C  0.25684412  0.08219975  0.29864725    -0.06200
C1333       C  0.23662247  0.09914270  0.31258899    -0.00200
C1334       C  0.21394796  0.10755727  0.29365156    -0.08700
C1335       C  0.18644260  0.11786544  0.30569393     0.61700
H1336       H  0.20158879  0.11511435  0.24686005     0.12400
H1337       H  0.27228299  0.07226295  0.31292560     0.12400
C1338       C  0.27854717  0.05692337  0.25444720     0.61900
F1339       F  0.16801251  0.12343989  0.28216309    -0.23300
F1340       F  0.18964811  0.14238364  0.32180546    -0.20600
F1341       F  0.17455886  0.09730439  0.32395990    -0.20300
F1342       F  0.30488645  0.06687989  0.25886271    -0.20300
F1343       F  0.27472482  0.05115170  0.22350018    -0.20600
F1344       F  0.27557799  0.03196185  0.27053797    -0.23300
C1345       C  0.19519145  0.17077511  0.21442194    -0.06200
C1346       C  0.20438013  0.16115919  0.18566392    -0.00200
C1347       C  0.19230339  0.17177609  0.15825052    -0.08800
C1348       C  0.17216295  0.19261860  0.16066486    -0.06200
C1349       C  0.16326220  0.20253412  0.18932814    -0.00200
C1350       C  0.17420679  0.19093523  0.21673509    -0.08700
C1351       C  0.16393005  0.19998659  0.24807377     0.61700
H1352       H  0.20478146  0.16259788  0.23505928     0.12400
H1353       H  0.16303581  0.20148150  0.14004075     0.12400
C1354       C  0.19988273  0.16070593  0.12658524     0.61900
F1355       F  0.13710397  0.19123864  0.25195301    -0.23300
F1356       F  0.16522535  0.22881074  0.25011970    -0.20600
F1357       F  0.17942576  0.18867048  0.27177353    -0.20300
F1358       F  0.19377227  0.13255780  0.12531693    -0.20300
F1359       F  0.22749259  0.16464657  0.12080901    -0.20600
F1360       F  0.18537893  0.17393012  0.10327288    -0.23300
C1361       C  0.30809429  0.13775135  0.13290600    -0.06200
C1362       C  0.30216466  0.13599833  0.16462103    -0.00200
C1363       C  0.31942611  0.15241168  0.18463051    -0.08800
C1364       C  0.34046751  0.16944022  0.17165989    -0.06200
C1365       C  0.34444814  0.17347294  0.13970513    -0.00200
C1366       C  0.32766507  0.15636434  0.11981264    -0.08700
C1367       C  0.32882531  0.15732013  0.08454898     0.61700
H1368       H  0.29528077  0.12612788  0.11749776     0.12400
H1369       H  0.35255193  0.18212665  0.18697439     0.12400
C1370       C  0.31647337  0.15322672  0.21978790     0.61900
F1371       F  0.30933570  0.14026010  0.07090521    -0.23300
F1372       F  0.35400385  0.14765990  0.07453022    -0.20600
F1373       F  0.32384723  0.18414203  0.07378082    -0.20300
F1374       F  0.33160383  0.17470283  0.23284222    -0.20300
F1375       F  0.32625381  0.12853283  0.23238393    -0.20600
F1376       F  0.28957840  0.15763646  0.22854377    -0.23300
C1377       C  0.65050200  0.79802533  0.39952922    -0.06200
C1378       C  0.65172499  0.78788478  0.42990761    -0.00200
C1379       C  0.66997394  0.80264644  0.45054735    -0.08800
C1380       C  0.68415968  0.82676314  0.43951263    -0.06200
C1381       C  0.68696200  0.83326709  0.40789489    -0.00200
C1382       C  0.66991702  0.81715313  0.38720563    -0.08700
C1383       C  0.67258097  0.81727932  0.35199037     0.61700
H1384       H  0.63608416  0.78866245  0.38403593     0.12400
H1385       H  0.69719070  0.83803100  0.45522283     0.12400
C1386       C  0.67766128  0.79260394  0.48319699     0.61900
F1387       F  0.65733410  0.79613722  0.33841666    -0.23300
F1388       F  0.69939565  0.81261614  0.34304840    -0.20600
F1389       F  0.66299440  0.84228585  0.34004175    -0.20300
F1390       F  0.65521560  0.79115603  0.50238323    -0.20300
F1391       F  0.69604605  0.81048684  0.49744793    -0.20600
F1392       F  0.69038262  0.76683389  0.48202377    -0.23300
C1393       C  0.68712284  0.64383854  0.46772683    -0.06200
C1394       C  0.70527903  0.64578678  0.44266817    -0.00200
C1395       C  0.69815897  0.66333642  0.41747023    -0.08800
C1396       C  0.67753303  0.68331518  0.42189598    -0.06200
C1397       C  0.66256074  0.68497241  0.44961114    -0.00200
C1398       C  0.66515737  0.66267323  0.47137412    -0.08700
C1399       C  0.64448236  0.65689034  0.49686693     0.61700
H1400       H  0.68996929  0.62715756  0.48431766     0.12400
H1401       H  0.67325141  0.69832244  0.40368874     0.12400
C1402       C  0.71021222  0.65957047  0.38532558     0.61900
F1403       F  0.62015631  0.64786144  0.48398979    -0.23300
F1404       F  0.63978894  0.68040737  0.51402627    -0.20600
F1405       F  0.65340461  0.63624022  0.51704941    -0.20300
F1406       F  0.73696906  0.66879797  0.38401181    -0.20300
F1407       F  0.69546590  0.67429787  0.36332123    -0.20600
F1408       F  0.70929514  0.63161509  0.37735051    -0.23300
C1409       C  0.82460213  0.78232697  0.39642826    -0.06200
C1410       C  0.81659806  0.75787258  0.38131742    -0.00200
C1411       C  0.78868214  0.75471524  0.37206970    -0.08800
C1412       C  0.77209667  0.77852275  0.37252595    -0.06200
C1413       C  0.78052038  0.80331877  0.38675906    -0.00200
C1414       C  0.80604284  0.80393617  0.40191935    -0.08700
C1415       C  0.81327156  0.82561158  0.42561827     0.61700
H1416       H  0.84515756  0.78376687  0.40573631     0.12400
H1417       H  0.75158101  0.77724927  0.36299422     0.12400
C1418       C  0.77380758  0.72779978  0.36337014     0.61900
F1419       F  0.79071363  0.83206373  0.44360066    -0.23300
F1420       F  0.82296383  0.84901266  0.41049966    -0.20600
F1421       F  0.83331964  0.81583586  0.44544911    -0.20300
F1422       F  0.75444462  0.72215849  0.38596325    -0.20300
F1423       F  0.79020096  0.70460776  0.36057204    -0.20600
F1424       F  0.76038689  0.73150512  0.33555051    -0.23300
C1425       C  0.84130649  0.66698396  0.43727167    -0.06200
C1426       C  0.85304313  0.66457198  0.40784985    -0.00200
C1427       C  0.84691280  0.63948030  0.39181659    -0.08800
C1428       C  0.82256306  0.62445325  0.39914379    -0.06200
C1429       C  0.80637464  0.63107259  0.42519374    -0.00200
C1430       C  0.81781711  0.65151243  0.44626112    -0.08700
C1431       C  0.80681810  0.66006034  0.47799390     0.61700
H1432       H  0.84784975  0.68439870  0.45150100     0.12400
H1433       H  0.81720837  0.60652154  0.38522242     0.12400
C1434       C  0.86800398  0.62509074  0.37179825     0.61900
F1435       F  0.80170408  0.68860175  0.47798916    -0.23300
F1436       F  0.82669697  0.65441642  0.49989506    -0.20600
F1437       F  0.78315608  0.64709552  0.48754676    -0.20300
F1438       F  0.89314710  0.63858616  0.37296808    -0.20300
F1439       F  0.85893067  0.62392713  0.34163672    -0.20600
F1440       F  0.87192720  0.59800071  0.38249995    -0.23300
C1441       C  0.76605561  0.57137532  0.04991698    -0.06200
C1442       C  0.74392345  0.58398191  0.06552067    -0.00200
C1443       C  0.72003952  0.58992948  0.04742595    -0.08800
C1444       C  0.72298193  0.59155324  0.01505651    -0.06200
C1445       C  0.74982487  0.58933832  0.50470779    -0.00200
C1446       C  0.76822254  0.57115211  0.01759693    -0.08700
C1447       C  0.77308693  0.54187458  0.51182601     0.61700
H1448       H  0.78254741  0.56207622  0.06310704     0.12400
H1449       H  0.73191321  0.62977904  0.50205753     0.12400
C1450       C  0.69109416  0.59269912  0.06034362     0.61900
F1451       F  0.79765852  0.53149541  0.01951633    -0.23300
F1452       F  0.79659348  0.54755202  0.49502704    -0.20600
F1453       F  0.75409450  0.52914210  0.49280777    -0.20300
F1454       F  0.68738584  0.61836419  0.07430491    -0.20300
F1455       F  0.68587930  0.57099599  0.08084617    -0.20600
F1456       F  0.67151277  0.59072765  0.03733611    -0.23300
C1457       C  0.90055053  0.72880691  0.29581361    -0.06200
C1458       C  0.87502046  0.72160021  0.30901144    -0.00200
C1459       C  0.85253642  0.71657812  0.28893725    -0.08800
C1460       C  0.85655926  0.71749977  0.25696244    -0.06200
C1461       C  0.88191292  0.72407744  0.24373261    -0.00200
C1462       C  0.90430657  0.73026685  0.26327063    -0.08700
C1463       C  0.93194218  0.73773413  0.24956363     0.61700
H1464       H  0.91760236  0.73279980  0.31113724     0.12400
H1465       H  0.83960589  0.71311155  0.24162765     0.12400
C1466       C  0.82385933  0.71173268  0.30086821     0.61900
F1467       F  0.95125081  0.74293648  0.27218787    -0.23300
F1468       F  0.92948086  0.76152835  0.23142716    -0.20600
F1469       F  0.94123735  0.71585383  0.23151184    -0.20300
F1470       F  0.81616572  0.73508242  0.31723177    -0.20300
F1471       F  0.82316265  0.68802955  0.31923792    -0.20600
F1472       F  0.80492124  0.70809520  0.27745557    -0.23300
C1473       C  0.82939069  0.66063678  0.18257993    -0.06200
C1474       C  0.84586951  0.67104629  0.15809702    -0.00200
C1475       C  0.84460000  0.65588010  0.12985309    -0.08800
C1476       C  0.82484739  0.63401366  0.12671023    -0.06200
C1477       C  0.80636457  0.62554341  0.15051798    -0.00200
C1478       C  0.81062652  0.63823132  0.17994800    -0.08700
C1479       C  0.79534414  0.62918067  0.20907182     0.61700
H1480       H  0.83018535  0.67167393  0.20427506     0.12400
H1481       H  0.82241169  0.62535795  0.10408811     0.12400
C1482       C  0.86236430  0.66303434  0.10215109     0.61900
F1483       F  0.80334027  0.64426521  0.23477092    -0.23300
F1484       F  0.80111168  0.60137727  0.21531793    -0.20600
F1485       F  0.76743901  0.63312319  0.20580024    -0.20300
F1486       F  0.88967796  0.66259418  0.11060036    -0.20300
F1487       F  0.85506346  0.68906057  0.09066246    -0.20600
F1488       F  0.85934460  0.64389688  0.07843729    -0.23300
C1489       C  0.59572880  0.72465209  0.06252768    -0.06200
C1490       C  0.61899612  0.73764820  0.07531997    -0.00200
C1491       C  0.63898182  0.74968486  0.05522815    -0.08800
C1492       C  0.63348738  0.75038840  0.02365495    -0.06200
C1493       C  0.61132670  0.73599500  0.51288595    -0.00200
C1494       C  0.59107520  0.72434607  0.03025009    -0.08700
C1495       C  0.56014616  0.74231577  0.52158213     0.61700
H1496       H  0.58092574  0.71521826  0.07811186     0.12400
H1497       H  0.65497118  0.73404601  0.50855654     0.12400
C1498       C  0.66686080  0.76164035  0.06456320     0.61900
F1499       F  0.54801381  0.70169517  0.04056150    -0.23300
F1500       F  0.54140070  0.74549093  0.54537119    -0.20600
F1501       F  0.55270144  0.71916352  0.50443956    -0.20300
F1502       F  0.67355220  0.75775287  0.09506529    -0.20300
F1503       F  0.66740247  0.79007347  0.05828943    -0.20600
F1504       F  0.68731361  0.74895967  0.04743131    -0.23300
C1505       C  0.68586661  0.69376347  0.11211024    -0.06200
C1506       C  0.67227397  0.69561311  0.14059871    -0.00200
C1507       C  0.67907807  0.67708889  0.16499214    -0.08800
C1508       C  0.69801285  0.65580800  0.15912634    -0.06200
C1509       C  0.71205524  0.65464991  0.13103163    -0.00200
C1510       C  0.70733402  0.67473307  0.10773232    -0.08700
C1511       C  0.72616217  0.67740468  0.07984180     0.61700
H1512       H  0.68047349  0.70812330  0.09382093     0.12400
H1513       H  0.70301646  0.64060989  0.17691591     0.12400
C1514       C  0.66681293  0.67985236  0.19699506     0.61900
F1515       F  0.71718947  0.69780628  0.05944893    -0.23300
F1516       F  0.72777550  0.65237318  0.06412740    -0.20600
F1517       F  0.75215871  0.68475862  0.08960385    -0.20300
F1518       F  0.67710866  0.66001416  0.21732795    -0.20300
F1519       F  0.63892294  0.67622880  0.19542933    -0.20600
F1520       F  0.67249036  0.70609419  0.20878372    -0.23300
C1521       C  0.77259483  0.87410920  0.27389874    -0.06200
C1522       C  0.74857328  0.88274567  0.25905067    -0.00200
C1523       C  0.72806014  0.89566409  0.27741936    -0.08800
C1524       C  0.72895760  0.89200425  0.30956759    -0.06200
C1525       C  0.75035657  0.87733395  0.32437146    -0.00200
C1526       C  0.77455979  0.87225461  0.30629096    -0.08700
C1527       C  0.80270219  0.86564818  0.31941412     0.61700
H1528       H  0.78937574  0.86642469  0.26010718     0.12400
H1529       H  0.71230520  0.90058634  0.32309936     0.12400
C1530       C  0.70500533  0.91354611  0.26461086     0.61900
F1531       F  0.82293656  0.86590739  0.29690374    -0.23300
F1532       F  0.80285683  0.83923572  0.33264876    -0.20600
F1533       F  0.80996965  0.88610591  0.34041762    -0.20300
F1534       F  0.68021431  0.89983543  0.26870577    -0.20300
F1535       F  0.70869296  0.91980131  0.23367608    -0.20600
F1536       F  0.70399286  0.93865002  0.28044877    -0.23300
C1537       C  0.79639441  0.80653268  0.16971601    -0.06200
C1538       C  0.78750649  0.81130607  0.20001330    -0.00200
C1539       C  0.79904797  0.79571380  0.22465268    -0.08800
C1540       C  0.81967578  0.77612732  0.21790934    -0.06200
C1541       C  0.82724020  0.77006241  0.18744550    -0.00200
C1542       C  0.81553379  0.78555809  0.16277007    -0.08700
C1543       C  0.82181086  0.77927865  0.12915354     0.61700
H1544       H  0.78678364  0.81827072  0.15120350     0.12400
H1545       H  0.82884404  0.76432532  0.23660374     0.12400
C1546       C  0.79015426  0.79807078  0.25809723     0.61900
F1547       F  0.84964698  0.77712049  0.12455907    -0.23300
F1548       F  0.81236502  0.80025883  0.10970815    -0.20600
F1549       F  0.80937309  0.75438954  0.12084931    -0.20300
F1550       F  0.78347565  0.77174633  0.26939253    -0.20300
F1551       F  0.76762094  0.81508601  0.26219020    -0.20600
F1552       F  0.81166514  0.80865983  0.27517614    -0.23300
C1553       C  0.67273685  0.83466661  0.15969029    -0.06200
C1554       C  0.68848721  0.83021601  0.18643755    -0.00200
C1555       C  0.67730870  0.81086628  0.20902207    -0.08800
C1556       C  0.65731045  0.79133057  0.19943988    -0.06200
C1557       C  0.64494903  0.79291503  0.17037887    -0.00200
C1558       C  0.64904776  0.81840932  0.15360756    -0.08700
C1559       C  0.62701122  0.83191241  0.13393821     0.61700
H1560       H  0.67764020  0.85205878  0.14454004     0.12400
H1561       H  0.65194012  0.77370683  0.21410138     0.12400
C1562       C  0.68405440  0.81126843  0.24351999     0.61900
F1563       F  0.62256881  0.85903823  0.14397903    -0.23300
F1564       F  0.60224131  0.81783597  0.13639304    -0.20600
F1565       F  0.63535255  0.83304011  0.10341123    -0.20300
F1566       F  0.67266622  0.83491766  0.25664882    -0.20300
F1567       F  0.71182767  0.81085867  0.24911430    -0.20600
F1568       F  0.67293431  0.78841721  0.25894206    -0.23300
C1569       C  0.72794595  0.84293893  0.68494919     0.86100
C1570       C  0.72859629  0.86331315  0.71199864    -0.54100
C1571       C  0.75403938  0.87144973  0.72149288     0.09000
C1572       C  0.77709948  0.86018305  0.70043005     0.20000
C1573       C  0.74359397  0.85972294  0.65883994    -0.54800
C1574       C  0.76951052  0.86886922  0.66731228     0.09100
C1575       C  0.74826965  0.81946237  0.69260782    -0.54400
C1576       C  0.77364792  0.82822456  0.70107267     0.09700
H1577       H  0.71005916  0.86959678  0.72367613     0.14200
H1578       H  0.79800708  0.86716678  0.70694905     0.00000
H1579       H  0.73580666  0.86348657  0.63582364     0.14500
H1580       H  0.74381167  0.79749167  0.68828822     0.14300
C1581       C  0.63937737  0.77130631  0.65369680     0.86100
C1582       C  0.63006019  0.76863257  0.61993301    -0.54100
C1583       C  0.62647233  0.74193311  0.61002778     0.09000
C1584       C  0.63189166  0.71952722  0.63471699     0.20000
C1585       C  0.61704480  0.75448501  0.67224662    -0.54800
C1586       C  0.61295067  0.72730275  0.66177701     0.09100
C1587       C  0.66469386  0.75240295  0.65576819    -0.54400
C1588       C  0.66098339  0.72557687  0.64674659     0.09700
H1589       H  0.62713962  0.78547386  0.60385182     0.14200
H1590       H  0.62926249  0.69789881  0.62590507     0.00000
H1591       H  0.60631749  0.76289622  0.69211918     0.14500
H1592       H  0.68434441  0.75972112  0.66441877     0.14300
C1593       C  0.87251070  0.69768011  0.66780275     0.86100
C1594       C  0.84907257  0.71873638  0.67443748    -0.54100
C1595       C  0.85719246  0.74455029  0.68381216     0.09000
C1596       C  0.88826736  0.74740018  0.68678723     0.20000
C1597       C  0.89039333  0.71410203  0.64389976    -0.54800
C1598       C  0.89894771  0.74009254  0.65420868     0.09100
C1599       C  0.89066162  0.69749289  0.69677193    -0.54400
C1600       C  0.89704087  0.72325936  0.70854400     0.09700
H1601       H  0.82753786  0.71369140  0.67124368     0.14200
H1602       H  0.89468217  0.76843896  0.69492152     0.00000
H1603       H  0.89487069  0.70744694  0.62071576     0.14500
H1604       H  0.89308329  0.67855856  0.71059036     0.14300
C1605       C  0.78884132  0.61713511  0.64579584     0.86100
C1606       C  0.77312085  0.64480243  0.64735879    -0.54100
C1607       C  0.74691059  0.64380531  0.63772372     0.09000
C1608       C  0.73786055  0.61447808  0.62681380     0.20000
C1609       C  0.77029391  0.59609227  0.66437901    -0.54800
C1610       C  0.74331624  0.59507820  0.65449168     0.09100
C1611       C  0.78524173  0.60736246  0.61188373    -0.54400
C1612       C  0.75868301  0.60633502  0.60184845     0.09700
H1613       H  0.78175203  0.66331819  0.65784568     0.14200
H1614       H  0.71629085  0.61319269  0.61914556     0.00000
H1615       H  0.77738214  0.58370481  0.68374513     0.14500
H1616       H  0.80177330  0.60162496  0.59649722     0.14300
C1617       C  0.86320812  0.69193385  0.88607768     0.86100
C1618       C  0.87518948  0.69332823  0.85296455    -0.54100
C1619       C  0.87776046  0.71977315  0.84090336     0.09000
C1620       C  0.86905004  0.74293241  0.86356617     0.20000
C1621       C  0.88276600  0.71112933  0.90505240    -0.54800
C1622       C  0.88566484  0.73808737  0.89362745     0.09100
C1623       C  0.83678251  0.70907466  0.88444921    -0.54400
C1624       C  0.83931512  0.73503294  0.87238484     0.09700
H1625       H  0.87972448  0.67559455  0.83865654     0.14200
H1626       H  0.87095628  0.76447162  0.85391228     0.00000
H1627       H  0.89233768  0.70443937  0.92642942     0.14500
H1628       H  0.81769451  0.70204123  0.89498435     0.14300
C1629       C  0.77660898  0.62050996  0.92623191     0.86100
C1630       C  0.77659700  0.60464681  0.95699126    -0.54100
C1631       C  0.75169628  0.59544779  0.96731251     0.09000
C1632       C  0.72823987  0.60269953  0.94450832     0.20000
C1633       C  0.76222740  0.59946127  0.90345010    -0.54800
C1634       C  0.73658054  0.59039875  0.91328280     0.09100
C1635       C  0.75498673  0.64361325  0.92948295    -0.54400
C1636       C  0.72983111  0.63443706  0.93862467     0.09700
H1637       H  0.79501628  0.60291841  0.97051881     0.14200
H1638       H  0.70754510  0.59577952  0.95194378     0.00000
H1639       H  0.77002539  0.59390501  0.88088891     0.14500
H1640       H  0.75925771  0.66556884  0.92464717     0.14300
C1641       C  0.63116034  0.76619274  0.93437714     0.86100
C1642       C  0.65459321  0.74511632  0.94125869    -0.54100
C1643       C  0.64652300  0.71907092  0.95126821     0.09000
C1644       C  0.61549538  0.71635948  0.95445007     0.20000
C1645       C  0.61237036  0.74975922  0.91172248    -0.54800
C1646       C  0.60446762  0.72356758  0.92191418     0.09100
C1647       C  0.61351237  0.76641822  0.96390452    -0.54400
C1648       C  0.60732761  0.74061953  0.97616893     0.09700
H1649       H  0.67590834  0.74972624  0.93584733     0.14200
H1650       H  0.60875421  0.69536782  0.96226340     0.00000
H1651       H  0.60667678  0.75759031  0.88907852     0.14500
H1652       H  0.60849664  0.78463415  0.97707004     0.14300
C1653       C  0.71557779  0.84418957  0.89136055     0.86100
C1654       C  0.73375203  0.81834872  0.89274544    -0.54100
C1655       C  0.76035323  0.82284055  0.88598025     0.09000
C1656       C  0.76731921  0.85337559  0.87798424     0.20000
C1657       C  0.73056583  0.86520310  0.91374179    -0.54800
C1658       C  0.75779678  0.87020323  0.90601427     0.01100
C1659       C  0.72090533  0.85751513  0.85929361    -0.54400
C1660       C  0.74806144  0.86160248  0.85140140     0.09700
H1661       H  0.72606734  0.79760004  0.89881300     0.14200
H1662       H  0.78909947  0.85655157  0.87351139     0.00000
H1663       H  0.72115969  0.87499239  0.93362122     0.14500
H1664       H  0.70441567  0.86329980  0.84405421     0.14300
In1665     In  0.93164720  0.80485049  0.59924091     1.36900
C1666       C  0.89339269  0.84642569  0.60793170     0.77200
O1667       O  0.94273946  0.82225676  0.55244288    -0.61200
O1668       O  0.91952598  0.78457556  0.55416464    -0.52200
C1669       C  0.98705502  0.80528473  0.60685885     0.69900
O1670       O  0.97247999  0.82689074  0.61079083    -0.47000
C1671       C  0.91256969  0.76192133  0.63459243     0.74600
O1672       O  0.91426979  0.84400726  0.62504968    -0.58900
O1673       O  0.91447088  0.76047815  0.60562941    -0.49000
O1674       O  0.89240596  0.82800529  0.58728797    -0.55300
C1675       C  0.93061488  0.80325812  0.53756917     0.84800
O1676       O  0.97329297  0.78374418  0.60051200    -0.57200
O1677       O  0.92115171  0.78484993  0.64542808    -0.60500
In1678     In  0.07300429  0.80423491  0.59922280     1.36900
C1679       C  0.11026233  0.84682661  0.60793210     0.77200
O1680       O  0.08274910  0.78236478  0.64471443    -0.61200
O1681       O  0.09221074  0.76018358  0.60416377    -0.52200
C1682       C  0.01762309  0.80497541  0.60728765     0.69900
O1683       O  0.03248530  0.82618870  0.61217444    -0.47000
C1684       C  0.06989838  0.80454439  0.53746115     0.74600
O1685       O  0.08777853  0.84556744  0.62252825    -0.58900
O1686       O  0.08018998  0.78440604  0.55242421    -0.49000
O1687       O  0.11393508  0.82604337  0.59052642    -0.55300
C1688       C  0.09262200  0.76017776  0.63326934     0.84800
O1689       O  0.03115107  0.78332989  0.60074004    -0.57200
O1690       O  0.06159089  0.82447874  0.55392700    -0.60500
In1691     In  0.16870060  0.91301831  0.60609092     1.36900
C1692       C  0.13062207  0.87053730  0.60935495     0.77200
O1693       O  0.14984113  0.92381675  0.56024769    -0.61200
O1694       O  0.18891067  0.90397923  0.56048777    -0.52200
C1695       C  0.16902730  0.97044901  0.61315404     0.69900
O1696       O  0.14859642  0.95543634  0.62088478    -0.47000
C1697       C  0.20869529  0.89290796  0.64367946     0.74600
O1698       O  0.12777130  0.89321002  0.62430936    -0.58900
O1699       O  0.21204430  0.89628484  0.61502490    -0.49000
O1700       O  0.15258054  0.86978064  0.59406771    -0.55300
C1701       C  0.16945055  0.91392727  0.54467670     0.84800
O1702       O  0.18903357  0.95605879  0.60381464    -0.57200
O1703       O  0.18540041  0.90081703  0.65315329    -0.60500
In1704     In  0.17173070  0.05949973  0.60410223     1.36900
C1705       C  0.13311411  0.10128821  0.60899890     0.77200
O1706       O  0.19065773  0.07314587  0.64954921    -0.61200
O1707       O  0.21589768  0.07657783  0.61020107    -0.52200
C1708       C  0.16984039  0.00211168  0.61274097     0.69900
O1709       O  0.15068884  0.01819333  0.62144484    -0.47000
C1710       C  0.16958716  0.05796400  0.54270580     0.74600
O1711       O  0.13145504  0.07850059  0.62413910    -0.58900
O1712       O  0.19074599  0.06572438  0.55711503    -0.49000
O1713       O  0.15446204  0.10273689  0.59261483    -0.55300
C1714       C  0.21350111  0.08116164  0.63873289     0.84800
O1715       O  0.19000638  0.01542836  0.60179447    -0.57200
O1716       O  0.14972108  0.05073993  0.55962600    -0.60500
In1717     In  0.92968338  0.15955296  0.60959507     1.36900
C1718       C  0.90718062  0.20216659  0.64345524     0.77200
O1719       O  0.91898801  0.17923991  0.56404534    -0.61200
O1720       O  0.93980227  0.14008469  0.56362470    -0.52200
C1721       C  0.98602196  0.16168741  0.61497241     0.69900
O1722       O  0.97128773  0.18101564  0.60418948    -0.47000
C1723       C  0.89227124  0.11641386  0.61540130     0.74600
O1724       O  0.91601372  0.17948086  0.65497524    -0.58900
O1725       O  0.89018028  0.13709607  0.59744621    -0.49000
O1726       O  0.91072986  0.20362063  0.61470714    -0.55300
C1727       C  0.92915775  0.15971598  0.54814234     0.84800
O1728       O  0.97199738  0.14130366  0.62529754    -0.57200
O1729       O  0.91365960  0.11754493  0.63197533    -0.60500
In1730     In  0.07270890  0.16559594  0.60300598     1.36900
C1731       C  0.11190248  0.12424756  0.60881181     0.77200
O1732       O  0.06431934  0.14448476  0.55724798    -0.61200
O1733       O  0.07695976  0.18698803  0.55641864    -0.52200
C1734       C  0.01687496  0.16298896  0.61329465     0.69900
O1735       O  0.03314516  0.14409606  0.62249896    -0.47000
C1736       C  0.09290936  0.20985401  0.63651472     0.74600
O1737       O  0.08944268  0.12371496  0.62352777    -0.58900
O1738       O  0.09109247  0.21002125  0.60751644    -0.49000
O1739       O  0.11457925  0.14606536  0.59253042    -0.55300
C1740       C  0.06999530  0.16575395  0.54105213     0.84800
O1741       O  0.02920445  0.18321369  0.60062913    -0.57200
O1742       O  0.08423170  0.18726627  0.64843427    -0.60500
In1743     In  0.83016028  0.90746645  0.61058754     1.36900
C1744       C  0.87138066  0.86826609  0.61068352     0.77200
O1745       O  0.81313857  0.89215113  0.65683848    -0.61200
O1746       O  0.78735649  0.88761495  0.61830080    -0.52200
C1747       C  0.83171656  0.96448286  0.62016835     0.69900
O1748       O  0.85269332  0.94906793  0.62278394    -0.47000
C1749       C  0.82601573  0.91174950  0.54949795     0.74600
O1750       O  0.87057754  0.88799872  0.63017078    -0.58900
O1751       O  0.80769652  0.90023235  0.56588918    -0.49000
O1752       O  0.85129892  0.86851085  0.59253866    -0.55300
C1753       C  0.79027742  0.88348392  0.64687568     0.84800
O1754       O  0.81015198  0.95057454  0.61545668    -0.57200
O1755       O  0.84598930  0.92153634  0.56435120    -0.60500
In1756     In  0.83048853  0.05332507  0.60992320     1.36900
C1757       C  0.87110907  0.09334383  0.61515333     0.77200
O1758       O  0.84719661  0.04296904  0.56270166    -0.61200
O1759       O  0.80835034  0.06274222  0.56526125    -0.52200
C1760       C  0.83192851  0.99607206  0.61983303     0.69900
O1761       O  0.85314033  0.01130152  0.62096383    -0.47000
C1762       C  0.78814628  0.07581215  0.64304787     0.74600
O1763       O  0.86943910  0.07274562  0.63369654    -0.58900
O1764       O  0.78628746  0.06955622  0.61492336    -0.49000
O1765       O  0.85252183  0.09306553  0.59508851    -0.55300
C1766       C  0.82703990  0.05302675  0.54825191     0.84800
O1767       O  0.81042521  0.01018982  0.61596655    -0.57200
O1768       O  0.81134187  0.06991248  0.65442728    -0.60500
In1769     In  0.82148529  0.90956454  0.95592576     1.36900
C1770       C  0.86252249  0.87005579  0.94769653     0.77200
O1771       O  0.83995578  0.91839517  0.00255395    -0.61200
O1772       O  0.80012028  0.90059094  0.00129459    -0.52200
C1773       C  0.82318684  0.96704688  0.94726954     0.69900
O1774       O  0.84341459  0.95132419  0.94160965    -0.47000
C1775       C  0.77866900  0.88694388  0.92367078     0.74600
O1776       O  0.86085864  0.89199514  0.93120201    -0.58900
O1777       O  0.77772100  0.89107450  0.95230355    -0.49000
O1778       O  0.84362399  0.86863620  0.96752060    -0.55300
C1779       C  0.81962804  0.90932510  0.01766750     0.84800
O1780       O  0.80222497  0.95336746  0.95526365    -0.57200
O1781       O  0.80063956  0.89582696  0.91143409    -0.60500
In1782     In  0.82323393  0.05603973  0.95505320     1.36900
C1783       C  0.86254499  0.09815686  0.94878658     0.77200
O1784       O  0.80364006  0.06780189  0.90931892    -0.61200
O1785       O  0.77889621  0.07160690  0.94908660    -0.52200
C1786       C  0.82365989  0.99867234  0.94698457     0.69900
O1787       O  0.84442503  0.01388567  0.94130772    -0.47000
C1788       C  0.82587278  0.05397955  0.51435294     0.74600
O1789       O  0.86389070  0.07514268  0.93426180    -0.58900
O1790       O  0.80612076  0.06461712  0.49964735    -0.49000
O1791       O  0.84126926  0.09959492  0.96530124    -0.55300
C1792       C  0.78059108  0.07492612  0.92027922     0.84800
O1793       O  0.80296180  0.01284428  0.95452385    -0.57200
O1794       O  0.84136864  0.04393625  0.00097526    -0.60500
In1795     In  0.16503184  0.90992927  0.95028725     1.36900
C1796       C  0.12478241  0.86975141  0.94160876     0.77200
O1797       O  0.18611809  0.89632241  0.90613501    -0.61200
O1798       O  0.20831865  0.88996610  0.94715326    -0.52200
C1799       C  0.16447227  0.96741069  0.94114673     0.69900
O1800       O  0.14323461  0.95235249  0.93862871    -0.47000
C1801       C  0.16660026  0.91155094  0.01193300     0.74600
O1802       O  0.12601821  0.89185173  0.92528124    -0.58900
O1803       O  0.18608935  0.90234489  0.99576982    -0.49000
O1804       O  0.14353687  0.86869265  0.96147954    -0.55300
C1805       C  0.20773688  0.88663651  0.91834101     0.84800
O1806       O  0.18570893  0.95302352  0.94584346    -0.57200
O1807       O  0.14621688  0.91999372  0.99667196    -0.60500
In1808     In  0.16686912  0.05644737  0.94988570     1.36900
C1809       C  0.12571760  0.09665480  0.94548127     0.77200
O1810       O  0.15113946  0.04416672  0.99685009    -0.61200
O1811       O  0.18865114  0.06668281  0.99463747    -0.52200
C1812       C  0.16489292  0.99906850  0.94119835     0.69900
O1813       O  0.14414305  0.01471691  0.93801482    -0.47000
C1814       C  0.20891368  0.07863771  0.91551891     0.74600
O1815       O  0.12755805  0.07634634  0.92679808    -0.58900
O1816       O  0.21058908  0.07419773  0.94412892    -0.49000
O1817       O  0.14447832  0.09615628  0.96535784    -0.55300
C1818       C  0.17056153  0.05537200  0.01147368     0.84800
O1819       O  0.18639516  0.01282241  0.94661715    -0.57200
O1820       O  0.18647079  0.07026531  0.90416918    -0.60500
In1821     In  0.92316864  0.16372975  0.95301446     1.36900
C1822       C  0.88390814  0.12142884  0.94821772     0.77200
O1823       O  0.93159127  0.14279081  0.99850865    -0.61200
O1824       O  0.91753253  0.18484548  0.99938617    -0.52200
C1825       C  0.97939449  0.16292272  0.94311057     0.69900
O1826       O  0.96394385  0.14256064  0.93622991    -0.47000
C1827       C  0.90137200  0.20715569  0.91931791     0.74600
O1828       O  0.90594912  0.12157355  0.93257905    -0.58900
O1829       O  0.90562710  0.20881039  0.94791775    -0.49000
O1830       O  0.88172234  0.14298779  0.96477748    -0.55300
C1831       C  0.92830914  0.15981587  0.51429046     0.84800
O1832       O  0.96605500  0.18356893  0.95309866    -0.57200
O1833       O  0.90934215  0.18409557  0.90807097    -0.60500
In1834     In  0.06685451  0.16327571  0.94917086     1.36900
C1835       C  0.10440890  0.11977623  0.94510612     0.77200
O1836       O  0.08341035  0.18315937  0.90332977    -0.61200
O1837       O  0.08157666  0.20888828  0.94231246    -0.52200
C1838       C  0.01040658  0.16286760  0.94196086     0.69900
O1839       O  0.02535220  0.14215776  0.93483433    -0.47000
C1840       C  0.06590042  0.16383926  0.01151481     0.74600
O1841       O  0.08425702  0.12198478  0.92677174    -0.58900
O1842       O  0.07906167  0.18177362  0.99577455    -0.49000
O1843       O  0.10525558  0.13958016  0.96419857    -0.55300
C1844       C  0.08813753  0.20727454  0.91418356     0.84800
O1845       O  0.02434720  0.18376594  0.95020337    -0.57200
O1846       O  0.05312789  0.14615126  0.99548972    -0.60500
In1847     In  0.92203274  0.80441473  0.94538121     1.36900
C1848       C  0.88378775  0.84715487  0.94476896     0.77200
O1849       O  0.90516351  0.78534841  0.89999505    -0.61200
O1850       O  0.90574209  0.75954690  0.93935196    -0.52200
C1851       C  0.97823934  0.80413645  0.93552809     0.69900
O1852       O  0.96283749  0.82328004  0.92495309    -0.47000
C1853       C  0.92391228  0.80391034  0.00728991     0.74600
O1854       O  0.90494739  0.84764585  0.92763493    -0.58900
O1855       O  0.91466863  0.78354762  0.99191639    -0.49000
O1856       O  0.88206280  0.82491456  0.96042985    -0.55300
C1857       C  0.89954461  0.76147246  0.91121749     0.84800
O1858       O  0.96484628  0.78518731  0.94916253    -0.57200
O1859       O  0.93260402  0.82409957  0.99106541    -0.60500
In1860     In  0.06579989  0.80363221  0.94171498     1.36900
C1861       C  0.10375524  0.84657684  0.93914295     0.77200
O1862       O  0.05741509  0.82481242  0.98716283    -0.61200
O1863       O  0.07245986  0.78309669  0.98838843    -0.52200
C1864       C  0.00927050  0.80381528  0.93452738     0.69900
O1865       O  0.02456271  0.82251486  0.92271124    -0.47000
C1866       C  0.08910513  0.76039766  0.90830396     0.74600
O1867       O  0.08220266  0.84681454  0.92276240    -0.58900
O1868       O  0.08381818  0.75912224  0.93674930    -0.49000
O1869       O  0.10601384  0.82442924  0.95485627    -0.55300
C1870       C  0.06491480  0.80430552  0.00354564     0.84800
O1871       O  0.02288154  0.78474964  0.94754844    -0.57200
O1872       O  0.08180253  0.78352337  0.89644054    -0.60500
C1873       C  0.27355680  0.12778945  0.67155168     0.86100
C1874       C  0.27161990  0.11323473  0.70325683    -0.54100
C1875       C  0.24576697  0.10546657  0.71223882     0.09000
C1876       C  0.22390760  0.11176284  0.68741492     0.20000
C1877       C  0.26014503  0.10573691  0.64908650    -0.54800
C1878       C  0.23385259  0.09740187  0.65777737     0.09100
C1879       C  0.25225305  0.15124164  0.67183679    -0.54400
C1880       C  0.22661508  0.14303591  0.67970602     0.09700
H1881       H  0.28916614  0.11149012  0.71851015     0.14200
H1882       H  0.20273609  0.10578714  0.69426294     0.00000
H1883       H  0.26942693  0.09854899  0.62782190     0.14500
H1884       H  0.25713927  0.17293288  0.66622143     0.14300
C1885       C  0.35975724  0.20349994  0.63426872     0.86100
C1886       C  0.36877875  0.20695925  0.60013496    -0.54100
C1887       C  0.37440907  0.23398941  0.59067893     0.09000
C1888       C  0.37033691  0.25545540  0.61714978     0.20000
C1889       C  0.38288952  0.21830923  0.65315539    -0.54800
C1890       C  0.38849987  0.24558767  0.64427380     0.09100
C1891       C  0.33540994  0.22359521  0.63657812    -0.54400
C1892       C  0.34062879  0.25040462  0.62841057     0.09700
H1893       H  0.36919897  0.19025916  0.58360640     0.14200
H1894       H  0.37468657  0.27736826  0.61107096     0.00000
H1895       H  0.39275787  0.20854901  0.67288282     0.14500
H1896       H  0.31516331  0.21709232  0.64447008     0.14300
C1897       C  0.13197528  0.27651850  0.66571339     0.86100
C1898       C  0.15495763  0.25552299  0.67391560    -0.54100
C1899       C  0.14644058  0.23050755  0.68553787     0.09000
C1900       C  0.11541269  0.22809520  0.68858950     0.20000
C1901       C  0.11413245  0.25886479  0.64296499    -0.54800
C1902       C  0.10547341  0.23327683  0.65506651     0.09100
C1903       C  0.11364985  0.27855643  0.69438796    -0.54400
C1904       C  0.10683898  0.25371784  0.70828501     0.09700
H1905       H  0.17637526  0.25931715  0.66815759     0.14200
H1906       H  0.10875580  0.20761573  0.69834568     0.00000
H1907       H  0.11014508  0.26436540  0.61923859     0.14500
H1908       H  0.11033062  0.29851750  0.70583410     0.14300
C1909       C  0.21497287  0.35934986  0.64014376     0.86100
C1910       C  0.23119739  0.33203615  0.63850664    -0.54100
C1911       C  0.25707161  0.33472680  0.62818115     0.09000
C1912       C  0.26545359  0.36478493  0.62024527     0.20000
C1913       C  0.23334655  0.37937408  0.65984227    -0.54800
C1914       C  0.26010385  0.38140692  0.64966621     0.09100
C1915       C  0.21781415  0.37188830  0.60702050    -0.54400
C1916       C  0.24436443  0.37477148  0.59603797     0.09700
H1917       H  0.22324125  0.31209541  0.64678956     0.14200
H1918       H  0.28707953  0.36622594  0.61426948     0.00000
H1919       H  0.22648250  0.39025973  0.68023414     0.14500
H1920       H  0.20041559  0.37744263  0.59293504     0.14300
C1921       C  0.27133081  0.12394795  0.88665634     0.86100
C1922       C  0.25201764  0.14910632  0.88873869    -0.54100
C1923       C  0.22569580  0.14386802  0.88070937     0.09000
C1924       C  0.22028897  0.11374531  0.87009100     0.20000
C1925       C  0.25649929  0.10039960  0.90586958    -0.54800
C1926       C  0.22958247  0.09552527  0.89742860     0.09100
C1927       C  0.26758562  0.11343430  0.85307899    -0.54400
C1928       C  0.24104662  0.10842033  0.84372639     0.09700
H1929       H  0.25877325  0.16986688  0.89571558     0.14200
H1930       H  0.19867723  0.11006255  0.86436238     0.00000
H1931       H  0.26571988  0.08877742  0.92452445     0.14500
H1932       H  0.28457775  0.10962358  0.83764096     0.14300
C1933       C  0.36004885  0.20404002  0.91297122     0.86100
C1934       C  0.33717251  0.22605809  0.91430673    -0.54100
C1935       C  0.34499610  0.25164503  0.92432245     0.09000
C1936       C  0.37532234  0.25374433  0.93290186     0.20000
C1937       C  0.38291765  0.21881926  0.89295618    -0.54800
C1938       C  0.39053162  0.24502820  0.90360593     0.09100
C1939       C  0.37285501  0.20427336  0.94569492    -0.54400
C1940       C  0.38046727  0.23006598  0.95640463     0.09700
H1941       H  0.31603758  0.22162500  0.90800069     0.14200
H1942       H  0.38115117  0.27493388  0.94110839     0.00000
H1943       H  0.39236252  0.21052185  0.87247770     0.14500
H1944       H  0.37436230  0.18562208  0.95998487     0.14300
C1945       C  0.12737576  0.27598725  0.89173270     0.86100
C1946       C  0.11287637  0.27877902  0.86006478    -0.54100
C1947       C  0.10947250  0.25422357  0.84438511     0.09000
C1948       C  0.11629709  0.22801965  0.86447112     0.20000
C1949       C  0.10700871  0.25691799  0.90993070    -0.54800
C1950       C  0.10166901  0.23127545  0.89643532     0.09100
C1951       C  0.15220029  0.25684224  0.88595121    -0.54400
C1952       C  0.14663560  0.23228598  0.87185445     0.09700
H1953       H  0.10796256  0.29849594  0.84901341     0.14200
H1954       H  0.11211690  0.20770233  0.85296828     0.00000
H1955       H  0.09831341  0.26232799  0.93205206     0.14500
H1956       H  0.17271470  0.26169608  0.89417202     0.14300
C1957       C  0.21596326  0.35246103  0.92196020     0.86100
C1958       C  0.21658512  0.36869988  0.95257517    -0.54100
C1959       C  0.24207938  0.37588921  0.96295982     0.09000
C1960       C  0.26527644  0.36646942  0.94103568     0.20000
C1961       C  0.23282157  0.37138542  0.89878859    -0.54800
C1962       C  0.25881071  0.37853696  0.90909401     0.09100
C1963       C  0.23574735  0.32774005  0.92696936    -0.54400
C1964       C  0.26111641  0.33496931  0.93696618     0.09700
H1965       H  0.19826693  0.37166089  0.96649185     0.14200
H1966       H  0.28625500  0.37186748  0.94888543     0.00000
H1967       H  0.22664118  0.37661577  0.87563746     0.14500
H1968       H  0.23059538  0.30622308  0.92113100     0.14300
C1969       C  0.13988482  0.70041007  0.66464378     0.86100
C1970       C  0.12429181  0.69589286  0.69473047    -0.54100
C1971       C  0.11074669  0.71851304  0.70625820     0.09000
C1972       C  0.11476947  0.74511060  0.68566579     0.20000
C1973       C  0.11859372  0.71375603  0.64168421    -0.54800
C1974       C  0.10573026  0.73763641  0.65282973     0.09100
C1975       C  0.15876013  0.72536582  0.67128815    -0.54400
C1976       C  0.14582905  0.74871943  0.68144509     0.09700
H1977       H  0.12677598  0.67657091  0.70747439     0.14200
H1978       H  0.10470757  0.76437422  0.69420439     0.00000
H1979       H  0.11700372  0.70808884  0.61766828     0.14500
H1980       H  0.18066629  0.72507364  0.66668431     0.14300
C1981       C  0.22471009  0.61797463  0.63327932     0.86100
C1982       C  0.22135696  0.60226308  0.60242233    -0.54100
C1983       C  0.24500372  0.59766797  0.58652662     0.09000
C1984       C  0.27101428  0.60382990  0.60628929     0.20000
C1985       C  0.24223731  0.59731881  0.65233401    -0.54800
C1986       C  0.26695183  0.59030131  0.63894609     0.09100
C1987       C  0.24439227  0.64242118  0.62582796    -0.54400
C1988       C  0.26857146  0.63505864  0.61261513     0.09700
H1989       H  0.20214898  0.59655336  0.59218534     0.14200
H1990       H  0.29064510  0.59806636  0.59492624     0.00000
H1991       H  0.23651975  0.59004081  0.67513113     0.14500
H1992       H  0.24048305  0.66388986  0.63295417     0.14300
C1993       C  0.35882073  0.76688012  0.65316225     0.86100
C1994       C  0.33789439  0.74319296  0.64817266    -0.54100
C1995       C  0.34814523  0.71943680  0.63600683     0.09000
C1996       C  0.37866920  0.72047131  0.62906787     0.20000
C1997       C  0.38128965  0.75190885  0.67342632    -0.54800
C1998       C  0.39150666  0.72743187  0.66032004     0.09100
C1999       C  0.37358273  0.77052945  0.62182915    -0.54400
C2000       C  0.38287663  0.74634114  0.60859842     0.09700
H2001       H  0.31619653  0.74519154  0.65363497     0.14200
H2002       H  0.38603144  0.70070008  0.61855174     0.00000
H2003       H  0.38801182  0.75840264  0.69595159     0.14500
H2004       H  0.37304422  0.79014500  0.60896492     0.14300
C2005       C  0.26882084  0.84927157  0.67924907     0.86100
C2006       C  0.24692053  0.82740839  0.68770022    -0.54100
C2007       C  0.22195873  0.83787333  0.69623324     0.09000
C2008       C  0.22134916  0.86996539  0.69723421     0.20000
C2009       C  0.25452708  0.86906658  0.65532203    -0.54800
C2010       C  0.22925149  0.87899830  0.66442313     0.09100
C2011       C  0.27020941  0.86780461  0.70831067    -0.54400
C2012       C  0.24568586  0.87874725  0.71824832     0.09700
H2013       H  0.25007367  0.80512011  0.68390388     0.14200
H2014       H  0.20100025  0.87813286  0.70378268     0.00000
H2015       H  0.26297794  0.87437851  0.63303221     0.14500
H2016       H  0.28881761  0.87104867  0.72098395     0.14300
C2017       C  0.12941173  0.69302174  0.88187250     0.86100
C2018       C  0.15325237  0.71234567  0.87308012    -0.54100
C2019       C  0.14590090  0.73719435  0.86061862     0.09000
C2020       C  0.11510684  0.74147478  0.85781121     0.20000
C2021       C  0.11077928  0.71157833  0.90314309    -0.54800
C2022       C  0.10370239  0.73729768  0.89075185     0.09100
C2023       C  0.11186614  0.69112555  0.85222239    -0.54400
C2024       C  0.10496243  0.71632877  0.83827279     0.09700
H2025       H  0.17445750  0.70773341  0.87896674     0.14200
H2026       H  0.11119651  0.76264210  0.84918586     0.00000
H2027       H  0.10337888  0.70570580  0.92565752     0.14500
H2028       H  0.10669193  0.67085555  0.84293588     0.14300
C2029       C  0.21504629  0.60941171  0.91009511     0.86100
C2030       C  0.23391758  0.63474269  0.91575191    -0.54100
C2031       C  0.25931785  0.62849764  0.92621873     0.09000
C2032       C  0.26354776  0.59746188  0.93321878     0.20000
C2033       C  0.23315398  0.58967105  0.88945877    -0.54800
C2034       C  0.25875517  0.58386828  0.90177137     0.09100
C2035       C  0.21451880  0.59326157  0.94104018    -0.54400
C2036       C  0.23956837  0.58869371  0.95435394     0.09700
H2037       H  0.22757742  0.65615560  0.91128669     0.14200
H2038       H  0.28402225  0.59274675  0.94302133     0.00000
H2039       H  0.22769167  0.58156985  0.86717059     0.14500
H2040       H  0.19565600  0.58948818  0.95381126     0.14300
C2041       C  0.35512989  0.76140176  0.92109183     0.86100
C2042       C  0.36477896  0.76320161  0.95462585    -0.54100
C2043       C  0.37354332  0.73872345  0.96730859     0.09000
C2044       C  0.37357999  0.71387422  0.94440125     0.20000
C2045       C  0.37967659  0.74839383  0.90305437    -0.54800
C2046       C  0.38908664  0.72316810  0.91495930     0.09100
C2047       C  0.33421479  0.73710608  0.92220487    -0.54400
C2048       C  0.34383929  0.71195006  0.93330049     0.09700
H2049       H  0.36224608  0.78131562  0.96898197     0.14200
H2050       H  0.38206451  0.69446016  0.95433396     0.00000
H2051       H  0.38675723  0.75677328  0.88110077     0.14500
H2052       H  0.31332387  0.73947960  0.91392611     0.14300
C2053       C  0.26837236  0.84043677  0.88495790     0.86100
C2054       C  0.26779109  0.85801438  0.85516364    -0.54100
C2055       C  0.24249046  0.86744861  0.84546102     0.09000
C2056       C  0.21982946  0.85874587  0.86862384     0.20000
C2057       C  0.25457696  0.86082978  0.90906840    -0.54800
C2058       C  0.22876963  0.87051639  0.89989838     0.09100
C2059       C  0.24669120  0.81784856  0.88164430    -0.54400
C2060       C  0.22194642  0.82697896  0.87258436     0.09700
H2061       H  0.28675222  0.86275483  0.84326630     0.14200
H2062       H  0.19881622  0.86469534  0.86354071     0.00000
H2063       H  0.26335644  0.86588145  0.93131951     0.14500
H2064       H  0.25026334  0.79595466  0.88750859     0.14300
In2065     In  0.67596438  0.41065011  0.70105007     1.36900
C2066       C  0.63601699  0.36925938  0.69513853     0.77200
O2067       O  0.69697556  0.40156276  0.65492945    -0.61200
O2068       O  0.72033659  0.39407082  0.69483789    -0.52200
C2069       C  0.67514173  0.46801245  0.69212215     0.69900
O2070       O  0.65581809  0.45226135  0.68313253    -0.47000
C2071       C  0.67490174  0.41252731  0.76313558     0.74600
O2072       O  0.63355678  0.39355260  0.68344531    -0.58900
O2073       O  0.69490967  0.40264133  0.74819949    -0.49000
O2074       O  0.65899176  0.36596849  0.70794278    -0.55300
C2075       C  0.71971991  0.39336740  0.66575256     0.84800
O2076       O  0.69471110  0.45439282  0.70372770    -0.57200
O2077       O  0.65568298  0.42150930  0.74643813    -0.60500
In2078     In  0.67573228  0.55698686  0.70094724     1.36900
C2079       C  0.63327666  0.59540554  0.69779494     0.77200
O2080       O  0.65826077  0.54356283  0.74677904    -0.61200
O2081       O  0.69442403  0.56845229  0.74681807    -0.52200
C2082       C  0.67512691  0.49965766  0.69170307     0.69900
O2083       O  0.65529273  0.51523722  0.68388203    -0.47000
C2084       C  0.71993266  0.58007229  0.67045303     0.74600
O2085       O  0.63666055  0.57685015  0.67721978    -0.58900
O2086       O  0.72085357  0.57138487  0.69788437    -0.49000
O2087       O  0.65141826  0.59431989  0.71830938    -0.55300
C2088       C  0.67628468  0.55593469  0.76252572     0.84800
O2089       O  0.69519888  0.51349812  0.70158699    -0.57200
O2090       O  0.69666134  0.57637035  0.65821776    -0.60500
In2091     In  0.43126019  0.66097611  0.70527260     1.36900
C2092       C  0.39251648  0.62030404  0.69534048     0.77200
O2093       O  0.43941762  0.63992508  0.75117469    -0.61200
O2094       O  0.42396764  0.68144131  0.75114493    -0.52200
C2095       C  0.48680876  0.65982500  0.69540082     0.69900
O2096       O  0.47178818  0.63850743  0.69187141    -0.47000
C2097       C  0.40841296  0.70548781  0.67605593     0.74600
O2098       O  0.41444919  0.62160570  0.67967606    -0.58900
O2099       O  0.41369191  0.70550854  0.70445199    -0.49000
O2100       O  0.39055533  0.63964990  0.71485991    -0.55300
C2101       C  0.43148923  0.66059467  0.76686140     0.84800
O2102       O  0.47332022  0.68160332  0.70140559    -0.57200
O2103       O  0.41635024  0.68351433  0.66239198    -0.60500
In2104     In  0.57288356  0.65998939  0.70630092     1.36900
C2105       C  0.61084234  0.61720970  0.69934059     0.77200
O2106       O  0.58872210  0.68274847  0.66337604    -0.61200
O2107       O  0.58963561  0.70503863  0.70519116    -0.52200
C2108       C  0.51751233  0.65955941  0.69563126     0.69900
O2109       O  0.53225700  0.63799924  0.69225791    -0.47000
C2110       C  0.57105316  0.66186963  0.76798646     0.74600
O2111       O  0.59243688  0.62191315  0.67937716    -0.58900
O2112       O  0.58447605  0.67927644  0.75197059    -0.49000
O2113       O  0.60935101  0.63378804  0.72175560    -0.55300
C2114       C  0.59579053  0.70502063  0.67697848     0.84800
O2115       O  0.53123009  0.68111572  0.70193882    -0.57200
O2116       O  0.55830351  0.64370899  0.75250982    -0.60500
In2117     In  0.32853124  0.41214773  0.69915513     1.36900
C2118       C  0.36966733  0.37244019  0.69344746     0.77200
O2119       O  0.34569956  0.42330641  0.74563204    -0.61200
O2120       O  0.30875473  0.39972724  0.74426466    -0.52200
C2121       C  0.33081842  0.46923225  0.69003004     0.69900
O2122       O  0.35020390  0.45316985  0.68212210    -0.47000
C2123       C  0.28378103  0.39397243  0.66698274     0.74600
O2124       O  0.36887429  0.39432141  0.67674665    -0.58900
O2125       O  0.28281024  0.40066855  0.69497780    -0.49000
O2126       O  0.34940269  0.37076365  0.71145475    -0.55300
C2127       C  0.32682807  0.41125948  0.76063050     0.84800
O2128       O  0.31061763  0.45609496  0.70093928    -0.57200
O2129       O  0.30742138  0.39703489  0.65528837    -0.60500
In2130     In  0.33094838  0.55782449  0.69504218     1.36900
C2131       C  0.37078020  0.59817607  0.69275994     0.77200
O2132       O  0.31343321  0.57185732  0.64772823    -0.61200
O2133       O  0.28717686  0.57239217  0.68632925    -0.52200
C2134       C  0.33125958  0.50069530  0.68884996     0.69900
O2135       O  0.35123451  0.51578237  0.67998838    -0.47000
C2136       C  0.32975317  0.55685697  0.75686907     0.74600
O2137       O  0.37249142  0.57582882  0.67708651    -0.58900
O2138       O  0.31108564  0.56808120  0.74086274    -0.49000
O2139       O  0.34873391  0.60000252  0.70780090    -0.55300
C2140       C  0.28969321  0.57739190  0.65784768     0.84800
O2141       O  0.31128831  0.51485708  0.69858482    -0.57200
O2142       O  0.34890843  0.54608208  0.74134076    -0.60500
In2143     In  0.57453106  0.30460736  0.70159615     1.36900
C2144       C  0.61407989  0.34658525  0.69558975     0.77200
O2145       O  0.56310141  0.32294795  0.74790250    -0.61200
O2146       O  0.58450968  0.28439774  0.74807542    -0.52200
C2147       C  0.51819743  0.30568872  0.69192836     0.69900
O2148       O  0.53410661  0.32504053  0.68273937    -0.47000
C2149       C  0.59474412  0.26237830  0.66500465     0.74600
O2150       O  0.59012027  0.34878498  0.68456791    -0.58900
O2151       O  0.59107850  0.25937201  0.69365275    -0.49000
O2152       O  0.61774402  0.32316126  0.70851876    -0.55300
C2153       C  0.57351522  0.30354947  0.76383748     0.84800
O2154       O  0.53112273  0.28570778  0.70431138    -0.57200
O2155       O  0.58669585  0.28601453  0.65524671    -0.60500
In2156     In  0.43045655  0.30772284  0.69693737     1.36900
C2157       C  0.39191187  0.35030311  0.69334157     0.77200
O2158       O  0.41546299  0.28868431  0.65099336    -0.61200
O2159       O  0.41072599  0.26388954  0.69080756    -0.52200
C2160       C  0.48711253  0.30633507  0.69052335     0.69900
O2161       O  0.47266560  0.32664243  0.68086363    -0.47000
C2162       C  0.43170787  0.30792495  0.75857911     0.74600
O2163       O  0.41293277  0.34969387  0.67596999    -0.58900
O2164       O  0.42247444  0.28749751  0.74327768    -0.49000
O2165       O  0.39094822  0.32963876  0.71151970    -0.55300
C2166       C  0.40608091  0.26607464  0.66227287     0.84800
O2167       O  0.47259123  0.28654643  0.70090562    -0.57200
O2168       O  0.44048297  0.32810567  0.74240850    -0.60500
In2169     In  0.43003048  0.30921196  0.85420583     1.36900
C2170       C  0.38970349  0.34945215  0.86044421     0.77200
O2171       O  0.44026534  0.32898608  0.80798024    -0.61200
O2172       O  0.42263917  0.28831320  0.80853909    -0.52200
C2173       C  0.48557005  0.30848616  0.86563469     0.69900
O2174       O  0.47065509  0.32933613  0.87227215    -0.47000
C2175       C  0.40758105  0.26618306  0.88662432     0.74600
O2176       O  0.41236632  0.35098367  0.87463902    -0.58900
O2177       O  0.41321345  0.26452937  0.85833989    -0.49000
O2178       O  0.38805502  0.32791214  0.84390476    -0.55300
C2179       C  0.43168961  0.30840259  0.79252283     0.84800
O2180       O  0.47199197  0.28828436  0.85503860    -0.57200
O2181       O  0.41501985  0.28907006  0.89867079    -0.60500
In2182     In  0.57243882  0.30575543  0.86013198     1.36900
C2183       C  0.60932651  0.34907073  0.86466726     0.77200
O2184       O  0.58922036  0.28630373  0.90545611    -0.61200
O2185       O  0.58666532  0.26031583  0.86660242    -0.52200
C2186       C  0.51636470  0.30756521  0.86741063     0.69900
O2187       O  0.53171491  0.32792579  0.87447225    -0.47000
C2188       C  0.57294664  0.30372404  0.79797251     0.74600
O2189       O  0.58877379  0.34707625  0.88251539    -0.58900
O2190       O  0.58508443  0.28581130  0.81455731    -0.49000
O2191       O  0.61101704  0.32901499  0.84600454    -0.55300
C2192       C  0.59378468  0.26223969  0.89442682     0.84800
O2193       O  0.52971733  0.28619510  0.85947162    -0.57200
O2194       O  0.56048899  0.32232293  0.81308175    -0.60500
In2195     In  0.32787577  0.55532204  0.85271047     1.36900
C2196       C  0.36760278  0.59568923  0.86266614     0.77200
O2197       O  0.34752102  0.54454783  0.80686532    -0.61200
O2198       O  0.31058082  0.56786433  0.80640033    -0.52200
C2199       C  0.32752698  0.49834045  0.86149912     0.69900
O2200       O  0.34686563  0.51365086  0.87123541    -0.47000
C2201       C  0.28264530  0.57199512  0.88442716     0.74600
O2202       O  0.36943387  0.57105828  0.87354922    -0.58900
O2203       O  0.28287294  0.56858052  0.85566115    -0.49000
O2204       O  0.34548548  0.59960504  0.84832738    -0.55300
C2205       C  0.32929545  0.55641292  0.79086420     0.84800
O2206       O  0.30868095  0.51217288  0.84884233    -0.57200
O2207       O  0.30538354  0.56646227  0.89708239    -0.60500
In2208     In  0.32547489  0.40981022  0.85592292     1.36900
C2209       C  0.36685534  0.37073741  0.86140396     0.77200
O2210       O  0.30463632  0.39783041  0.90138426    -0.61200
O2211       O  0.28076331  0.39444418  0.86122133    -0.52200
C2212       C  0.32677699  0.46691599  0.86248191     0.69900
O2213       O  0.34517325  0.45120964  0.87369895    -0.47000
C2214       C  0.32615681  0.41059459  0.79444899     0.74600
O2215       O  0.36757984  0.39412096  0.87512698    -0.58900
O2216       O  0.30697327  0.39933690  0.80970929    -0.49000
O2217       O  0.34476834  0.36704819  0.84694508    -0.55300
C2218       C  0.28166331  0.39111663  0.89003827     0.84800
O2219       O  0.30754562  0.45340581  0.85017339    -0.57200
O2220       O  0.34489583  0.42125674  0.81054838    -0.60500
In2221     In  0.67295120  0.55774239  0.85813260     1.36900
C2222       C  0.63281904  0.59785908  0.86513008     0.77200
O2223       O  0.69177582  0.56967816  0.90418179    -0.61200
O2224       O  0.71746812  0.57256538  0.86508780    -0.52200
C2225       C  0.67021708  0.50100158  0.86724149     0.69900
O2226       O  0.64961471  0.51677574  0.87052647    -0.47000
C2227       C  0.67550478  0.55643953  0.79640441     0.74600
O2228       O  0.63169101  0.57417793  0.87838006    -0.58900
O2229       O  0.69364925  0.56809053  0.81257009    -0.49000
O2230       O  0.65444835  0.60109666  0.84952126    -0.55300
C2231       C  0.71516872  0.57638126  0.89373828     0.84800
O2232       O  0.69196575  0.51433640  0.86153507    -0.57200
O2233       O  0.65620079  0.54559693  0.81167029    -0.60500
In2234     In  0.67003109  0.41274377  0.85921884     1.36900
C2235       C  0.63008284  0.37236107  0.86418166     0.77200
O2236       O  0.65337000  0.42292574  0.81175634    -0.61200
O2237       O  0.69238546  0.40357953  0.81429956    -0.52200
C2238       C  0.66943670  0.46961835  0.86750636     0.69900
O2239       O  0.64801369  0.45479438  0.87013192    -0.47000
C2240       C  0.71121851  0.39126573  0.89469931     0.74600
O2241       O  0.63049854  0.39356375  0.88174474    -0.58900
O2242       O  0.71337187  0.39675852  0.86631193    -0.49000
O2243       O  0.64958923  0.37219977  0.84511085    -0.55300
C2244       C  0.67365395  0.41317349  0.79721503     0.84800
O2245       O  0.69066742  0.45529576  0.86288954    -0.57200
O2246       O  0.68801804  0.39766867  0.90575645    -0.60500
In2247     In  0.57141890  0.66111048  0.86368406     1.36900
C2248       C  0.61088744  0.62002309  0.86642678     0.77200
O2249       O  0.55965451  0.64299198  0.81770894    -0.61200
O2250       O  0.58221905  0.68111970  0.81770259    -0.52200
C2251       C  0.51533696  0.66103137  0.87110466     0.69900
O2252       O  0.53049486  0.64202947  0.88245837    -0.47000
C2253       C  0.59101602  0.70205498  0.90165321     0.74600
O2254       O  0.58754559  0.61724578  0.87908412    -0.58900
O2255       O  0.58683664  0.70567160  0.87319237    -0.49000
O2256       O  0.61399000  0.64359253  0.85365081    -0.55300
C2257       C  0.57085586  0.66214937  0.80195729     0.84800
O2258       O  0.52889814  0.68020811  0.85796464    -0.57200
O2259       O  0.58414881  0.67790485  0.91102730    -0.60500
In2260     In  0.42835300  0.66009137  0.86216282     1.36900
C2261       C  0.38930147  0.61822506  0.86465758     0.77200
O2262       O  0.41312931  0.67870669  0.90781586    -0.61200
O2263       O  0.41073916  0.70449936  0.86840421    -0.52200
C2264       C  0.48440433  0.66083727  0.87080531     0.69900
O2265       O  0.46910832  0.64226243  0.88289418    -0.47000
C2266       C  0.43058180  0.66040535  0.80069713     0.74600
O2267       O  0.41245763  0.61587249  0.87771725    -0.58900
O2268       O  0.42188995  0.68096920  0.81610793    -0.49000
O2269       O  0.38616584  0.64177133  0.85184357    -0.55300
C2270       C  0.40539545  0.70199655  0.89675757     0.84800
O2271       O  0.47098134  0.67925582  0.85647020    -0.57200
O2272       O  0.43812279  0.63963434  0.81664513    -0.60500
C2273       C  0.72405193  0.11886573  0.67081066     0.86100
C2274       C  0.74422632  0.14314959  0.67601141    -0.54100
C2275       C  0.76931060  0.13541179  0.68591488     0.09000
C2276       C  0.77247022  0.10404039  0.69203671     0.20000
C2277       C  0.74036205  0.09788732  0.64989363    -0.54800
C2278       C  0.76594367  0.09049513  0.66098621     0.09100
C2279       C  0.72334605  0.10460573  0.70303012    -0.54400
C2280       C  0.74858275  0.09656756  0.71404531     0.09700
H2281       H  0.73948602  0.16497451  0.67094291     0.14200
H2282       H  0.79309609  0.09841214  0.70090384     0.00000
H2283       H  0.73316855  0.09139161  0.62734784     0.14500
H2284       H  0.70563721  0.10358522  0.71788171     0.14300
C2285       C  0.64703646  0.20721265  0.63337161     0.86100
C2286       C  0.66574815  0.23295248  0.63647845    -0.54100
C2287       C  0.65384770  0.25788686  0.62856664     0.09000
C2288       C  0.62476546  0.25496403  0.61624990     0.20000
C2289       C  0.62163475  0.21652922  0.65360164    -0.54800
C2290       C  0.61024164  0.24217315  0.64454572     0.09100
C2291       C  0.63565375  0.20761267  0.60062250    -0.54400
C2292       C  0.62618338  0.23268570  0.59067084     0.09700
H2293       H  0.68622664  0.23171326  0.64608731     0.14200
H2294       H  0.61528912  0.27480976  0.60824718     0.00000
H2295       H  0.61578118  0.20633769  0.67503428     0.14500
H2296       H  0.63548048  0.18924618  0.58592959     0.14300
C2297       C  0.78122970  0.34987910  0.63209962     0.86100
C2298       C  0.78421324  0.36828869  0.60292996    -0.54100
C2299       C  0.76002309  0.37836891  0.59119924     0.09000
C2300       C  0.73533539  0.37283568  0.61275913     0.20000
C2301       C  0.76678848  0.37024739  0.65586090    -0.54800
C2302       C  0.74242086  0.38184100  0.64555935     0.09100
C2303       C  0.75790988  0.32917753  0.62472418    -0.54400
C2304       C  0.73338208  0.34113924  0.61621262     0.09700
H2305       H  0.80307916  0.36886695  0.58956337     0.14200
H2306       H  0.71685784  0.38336861  0.60407823     0.00000
H2307       H  0.77318302  0.37346313  0.67944077     0.14500
H2308       H  0.75971989  0.30693575  0.62991784     0.14300
C2309       C  0.86562883  0.26673306  0.67589444     0.86100
C2310       C  0.88385345  0.26689369  0.70523658    -0.54100
C2311       C  0.89165130  0.24080963  0.71599271     0.09000
C2312       C  0.88218430  0.21698708  0.69470241     0.20000
C2313       C  0.88399955  0.25018311  0.65214564    -0.54800
C2314       C  0.89242454  0.22404978  0.66222057     0.09100
C2315       C  0.84262531  0.24595595  0.68357381    -0.54400
C2316       C  0.85114633  0.22041604  0.69335186     0.09700
H2317       H  0.88841528  0.28555300  0.71793062     0.14200
H2318       H  0.88867398  0.19566824  0.70185979     0.00000
H2319       H  0.88986041  0.25794992  0.62954034     0.14500
H2320       H  0.82105006  0.25055966  0.67978762     0.14300
C2321       C  0.71572822  0.11268575  0.88637521     0.86100
C2322       C  0.73152304  0.09270813  0.90905903    -0.54100
C2323       C  0.75876200  0.08845131  0.90088331     0.09000
C2324       C  0.76736646  0.10438788  0.87151916     0.20000
C2325       C  0.73378419  0.13887776  0.88688179    -0.54800
C2326       C  0.75997708  0.13487775  0.87844378     0.09100
C2327       C  0.72057380  0.09951995  0.85420012    -0.54400
C2328       C  0.74754450  0.09551907  0.84568790     0.09700
H2329       H  0.72328600  0.08431909  0.93032948     0.14200
H2330       H  0.78927863  0.10149841  0.86669137     0.00000
H2331       H  0.72640488  0.15936372  0.89406693     0.14500
H2332       H  0.70366428  0.09585213  0.83847304     0.14300
C2333       C  0.63283794  0.19379893  0.91786836     0.86100
C2334       C  0.61750485  0.19152383  0.94904095    -0.54100
C2335       C  0.61219558  0.21656478  0.96339565     0.09000
C2336       C  0.62112947  0.24230104  0.94382953     0.20000
C2337       C  0.61322325  0.21292770  0.89878816    -0.54800
C2338       C  0.60773955  0.23869851  0.91174845     0.09100
C2339       C  0.65770386  0.21254003  0.92493484    -0.54400
C2340       C  0.65185671  0.23765128  0.93794813     0.09700
H2341       H  0.61318400  0.17203349  0.96092775     0.14200
H2342       H  0.61659978  0.26277634  0.95482445     0.00000
H2343       H  0.60444297  0.20710922  0.87693534     0.14500
H2344       H  0.67844353  0.20720870  0.91778460     0.14300
C2345       C  0.77625329  0.34895830  0.91448429     0.86100
C2346       C  0.75697975  0.32306897  0.91337600    -0.54100
C2347       C  0.73172581  0.32688426  0.92638657     0.09000
C2348       C  0.72762193  0.35617078  0.93996813     0.20000
C2349       C  0.75917687  0.37273565  0.89968145    -0.54800
C2350       C  0.73337270  0.37616266  0.91217593     0.09100
C2351       C  0.77688664  0.35710663  0.94882957    -0.54400
C2352       C  0.75195745  0.35917498  0.96267823     0.09700
H2353       H  0.76307052  0.30309022  0.90356539     0.14200
H2354       H  0.70716930  0.35892776  0.95088035     0.00000
H2355       H  0.76592993  0.38467906  0.87978848     0.14500
H2356       H  0.79510427  0.35860060  0.96281456     0.14300
C2357       C  0.85770766  0.26979669  0.88493617     0.86100
C2358       C  0.83338997  0.24952398  0.88501617    -0.54100
C2359       C  0.83982681  0.22264834  0.87882070     0.09000
C2360       C  0.87039257  0.21780020  0.87173738     0.20000
C2361       C  0.87802632  0.25541223  0.90848457    -0.54800
C2362       C  0.88507014  0.22810705  0.90069993     0.09100
C2363       C  0.87152087  0.26577344  0.85340671    -0.54400
C2364       C  0.87826443  0.23876903  0.84574374     0.09700
H2365       H  0.81250179  0.25583607  0.89046097     0.14200
H2366       H  0.87490862  0.19566255  0.86747908     0.00000
H2367       H  0.88484623  0.26459850  0.92987867     0.14500
H2368       H  0.87456896  0.28335153  0.83774047     0.14300
C2369       C  0.82609327  0.30798335  0.86508785    -0.06200
C2370       C  0.84558985  0.29992951  0.88770984    -0.00200
C2371       C  0.84960071  0.31907245  0.91211923    -0.08800
C2372       C  0.82839433  0.33836872  0.91894625    -0.06200
C2373       C  0.80467071  0.34106916  0.90019740    -0.00200
C2374       C  0.80690284  0.32965795  0.87007322    -0.08700
C2375       C  0.79046159  0.34102316  0.84303823     0.61700
H2376       H  0.82487890  0.29601311  0.84396764     0.12400
H2377       H  0.83108143  0.35132092  0.93897736     0.12400
C2378       C  0.87632843  0.32182337  0.92935914     0.61900
F2379       F  0.76275470  0.33683707  0.84745371    -0.23300
F2380       F  0.79778666  0.32832658  0.81556141    -0.20600
F2381       F  0.79570475  0.36940048  0.83974736    -0.20300
F2382       F  0.89786892  0.31030262  0.91294768    -0.20300
F2383       F  0.87401198  0.30913178  0.95798656    -0.20600
F2384       F  0.88249437  0.34990959  0.93349673    -0.23300
C2385       C  0.71213674  0.28611714  0.95478537    -0.06200
C2386       C  0.71104382  0.30403517  0.92902882    -0.00200
C2387       C  0.69049860  0.29979833  0.90649417    -0.08800
C2388       C  0.67135095  0.27817673  0.91080300    -0.06200
C2389       C  0.67220215  0.26063376  0.93667632    -0.00200
C2390       C  0.69317424  0.26408027  0.95880178    -0.08700
C2391       C  0.69506001  0.24496164  0.98669425     0.61700
H2392       H  0.72771643  0.28968911  0.97196396     0.12400
H2393       H  0.65524262  0.27492192  0.89402184     0.12400
C2394       C  0.68691726  0.31957543  0.87960036     0.61900
F2395       F  0.67158036  0.24783393  0.00425856    -0.23300
F2396       F  0.71742962  0.25132850  0.00498500    -0.20600
F2397       F  0.69762499  0.21740759  0.97737906    -0.20300
F2398       F  0.71157154  0.32437667  0.86478293    -0.20300
F2399       F  0.67677914  0.34428117  0.89103963    -0.20600
F2400       F  0.66859179  0.30936312  0.85802739    -0.23300
C2401       C  0.79610109  0.16110479  0.90426348    -0.06200
C2402       C  0.77936719  0.15818037  0.87847554    -0.00200
C2403       C  0.77948737  0.17879176  0.85491519    -0.08800
C2404       C  0.80058613  0.19876400  0.85502775    -0.06200
C2405       C  0.81872112  0.20057812  0.87997428    -0.00200
C2406       C  0.81405604  0.18384052  0.90660876    -0.08700
C2407       C  0.82555449  0.19129044  0.93792849     0.61700
H2408       H  0.79379808  0.14638302  0.92324482     0.12400
H2409       H  0.80251602  0.21376101  0.83627654     0.12400
C2410       C  0.75692002  0.18036610  0.83083749     0.61900
F2411       F  0.81395292  0.17529293  0.96133291    -0.23300
F2412       F  0.82032979  0.21916940  0.94434368    -0.20600
F2413       F  0.85320641  0.18663149  0.93821918    -0.20300
F2414       F  0.73248496  0.18737754  0.84506814    -0.20300
F2415       F  0.75374687  0.15496350  0.81614384    -0.20600
F2416       F  0.76241779  0.20052359  0.80864057    -0.23300
C2417       C  0.67789259  0.14444193  0.86824511    -0.06200
C2418       C  0.68576542  0.12401755  0.89021001    -0.00200
C2419       C  0.66795764  0.12042514  0.91575961    -0.08800
C2420       C  0.64854381  0.14183071  0.92258239    -0.06200
C2421       C  0.64447193  0.16593573  0.90345612    -0.00200
C2422       C  0.65827117  0.16554156  0.87416895    -0.08700
C2423       C  0.65347018  0.18725234  0.84877592     0.61700
H2424       H  0.68983061  0.14561578  0.84720789     0.12400
H2425       H  0.63760003  0.13963856  0.94401897     0.12400
C2426       C  0.66732336  0.09371703  0.93469755     0.61900
F2427       F  0.67057176  0.18331044  0.82359359    -0.23300
F2428       F  0.65825761  0.21409500  0.85929934    -0.20600
F2429       F  0.62694074  0.18485341  0.83807689    -0.20300
F2430       F  0.64074735  0.08783089  0.94409516    -0.20300
F2431       F  0.68348267  0.09663027  0.96063139    -0.20600
F2432       F  0.67617779  0.07117015  0.91733557    -0.23300
C2433       C  0.88741945  0.21127931  0.76371623    -0.06200
C2434       C  0.89855240  0.23534541  0.74942434    -0.00200
C2435       C  0.91199002  0.25491793  0.76859374    -0.08800
C2436       C  0.90695369  0.25384566  0.80058653    -0.06200
C2437       C  0.89075180  0.23257236  0.81440426    -0.00200
C2438       C  0.88451319  0.20875723  0.79594027    -0.08700
C2439       C  0.87546514  0.18055438  0.80889076     0.61700
H2440       H  0.87876233  0.19496063  0.74971372     0.12400
H2441       H  0.91536212  0.27033744  0.81486515     0.12400
C2442       C  0.93223292  0.27658081  0.75676257     0.61900
F2443       F  0.87256581  0.16050496  0.78609860    -0.23300
F2444       F  0.85047973  0.18285113  0.82350215    -0.20600
F2445       F  0.89518943  0.17066143  0.82905093    -0.20300
F2446       F  0.92148106  0.30315787  0.76058633    -0.20300
F2447       F  0.93887474  0.27265767  0.72603046    -0.20600
F2448       F  0.95626691  0.27455153  0.77353909    -0.23300
C2449       C  0.74886446  0.39417382  0.50447298    -0.06200
C2450       C  0.74688991  0.36666307  0.49295965    -0.00200
C2451       C  0.74730100  0.34402756  0.51407141    -0.08800
C2452       C  0.75191858  0.34937860  0.54526266    -0.06200
C2453       C  0.75556128  0.37648124  0.55697116    -0.00200
C2454       C  0.75256538  0.39955515  0.53639862    -0.08700
C2455       C  0.75275160  0.42987710  0.54663569     0.61700
H2456       H  0.74826109  0.41157530  0.48830146     0.12400
H2457       H  0.75140415  0.33199917  0.56112548     0.12400
C2458       C  0.74253480  0.31413519  0.50391234     0.61900
F2459       F  0.72729658  0.44152939  0.54085125    -0.23300
F2460       F  0.77233558  0.44458641  0.53000339    -0.20600
F2461       F  0.75840520  0.43290827  0.57767516    -0.20300
F2462       F  0.80587652  0.31266763  0.01012308    -0.20300
F2463       F  0.77512808  0.30644251  0.97267817    -0.20600
F2464       F  0.71711359  0.31253384  0.49011205    -0.23300
C2465       C  0.81589839  0.33202152  0.67291860    -0.06200
C2466       C  0.80784062  0.33258870  0.64165771    -0.00200
C2467       C  0.82338381  0.31428968  0.62159840    -0.08800
C2468       C  0.84506875  0.29765516  0.63364191    -0.06200
C2469       C  0.85102751  0.29484076  0.66527515    -0.00200
C2470       C  0.83576683  0.31316083  0.68538669    -0.08700
C2471       C  0.83981060  0.31387760  0.72027215     0.61700
H2472       H  0.80547591  0.34565165  0.68860213     0.12400
H2473       H  0.85565995  0.28424381  0.61760768     0.12400
C2474       C  0.81881799  0.30938424  0.58725707     0.61900
F2475       F  0.82038630  0.33026332  0.73499321    -0.23300
F2476       F  0.86509951  0.32546020  0.72682881    -0.20600
F2477       F  0.83757021  0.28735896  0.73293835    -0.20300
F2478       F  0.81746143  0.28085681  0.58153222    -0.20300
F2479       F  0.84071556  0.32045400  0.57084845    -0.20600
F2480       F  0.79523928  0.32055559  0.57589591    -0.23300
C2481       C  0.63412890  0.24777653  0.50424987    -0.06200
C2482       C  0.61194548  0.23256476  0.49259167    -0.00200
C2483       C  0.59192827  0.22216197  0.51344296    -0.08800
C2484       C  0.59646706  0.22490714  0.54541734    -0.06200
C2485       C  0.62046683  0.23717090  0.55717079    -0.00200
C2486       C  0.63990304  0.24877546  0.53588449    -0.08700
C2487       C  0.66802993  0.26043633  0.54379433     0.61700
H2488       H  0.64905220  0.25640187  0.48824840     0.12400
H2489       H  0.58168280  0.21601458  0.56146344     0.12400
C2490       C  0.56567695  0.20795761  0.50338698     0.61900
F2491       F  0.68756400  0.24980572  0.52383578    -0.23300
F2492       F  0.67647851  0.25352666  0.57291905    -0.20600
F2493       F  0.66776388  0.28925324  0.54042316    -0.20300
F2494       F  0.56901605  0.27221614  0.99942539    -0.20300
F2495       F  0.54278813  0.23853103  0.02095445    -0.20600
F2496       F  0.56161817  0.20926768  0.47185517    -0.23300
C2497       C  0.66466761  0.30489372  0.60818907    -0.06200
C2498       C  0.66762312  0.28519843  0.63194846    -0.00200
C2499       C  0.68597973  0.29088192  0.65619174    -0.08800
C2500       C  0.70647510  0.31065324  0.65081844    -0.06200
C2501       C  0.70718010  0.32657267  0.62339885    -0.00200
C2502       C  0.68354532  0.32673379  0.60419790    -0.08700
C2503       C  0.67691679  0.34955200  0.58078980     0.61700
H2504       H  0.64831251  0.30233509  0.59173921     0.12400
H2505       H  0.72231361  0.31340294  0.66807786     0.12400
C2506       C  0.68423938  0.27757069  0.68797600     0.61900
F2507       F  0.69817212  0.35329401  0.56036160    -0.23300
F2508       F  0.67152814  0.37430518  0.59608572    -0.20600
F2509       F  0.65381556  0.34326915  0.56363158    -0.20300
F2510       F  0.70668946  0.26041443  0.69271498    -0.20300
F2511       F  0.66046644  0.26216664  0.69211905    -0.20600
F2512       F  0.68433312  0.29848015  0.71002058    -0.23300
C2513       C  0.73653895  0.07067303  0.79635282    -0.06200
C2514       C  0.75508026  0.08780872  0.81270284    -0.00200
C2515       C  0.77721203  0.09981690  0.79528273    -0.08800
C2516       C  0.77421968  0.10213820  0.76306542    -0.06200
C2517       C  0.75306424  0.08863861  0.74714289    -0.00200
C2518       C  0.73634634  0.06955028  0.76383597    -0.08700
C2519       C  0.71962109  0.04653231  0.74887690     0.61700
H2520       H  0.72179655  0.05811516  0.80911966     0.12400
H2521       H  0.78850624  0.11500312  0.75018920     0.12400
C2522       C  0.80491278  0.10786589  0.80865486     0.61900
F2523       F  0.72927574  0.02087496  0.75921004    -0.23300
F2524       F  0.72149294  0.04666533  0.71704917    -0.20600
F2525       F  0.69237484  0.04907874  0.75727782    -0.20300
F2526       F  0.81527917  0.08558008  0.82547706    -0.20300
F2527       F  0.80294996  0.13128328  0.82677140    -0.20600
F2528       F  0.82393639  0.11397904  0.78577099    -0.23300
C2529       C  0.79494546  0.16961708  0.71624948    -0.06200
C2530       C  0.79158556  0.15579935  0.68808683    -0.00200
C2531       C  0.80800402  0.16328947  0.66231023    -0.08800
C2532       C  0.82949864  0.18208024  0.66685340    -0.06200
C2533       C  0.83218636  0.19674829  0.69448030    -0.00200
C2534       C  0.81421782  0.19118664  0.71950382    -0.08700
C2535       C  0.81357572  0.20749197  0.74944248     0.61700
H2536       H  0.78130957  0.16461989  0.73533323     0.12400
H2537       H  0.84281584  0.18739530  0.64756134     0.12400
C2538       C  0.80325773  0.15382540  0.62931650     0.61900
F2539       F  0.81838434  0.18931767  0.77374163    -0.23300
F2540       F  0.78788024  0.21923520  0.75319557    -0.20600
F2541       F  0.83261156  0.22886143  0.75054799    -0.20300
F2542       F  0.80459073  0.17680370  0.60968997    -0.20300
F2543       F  0.77815010  0.14135022  0.62468645    -0.20600
F2544       F  0.82353747  0.13519769  0.62114111    -0.23300
C2545       C  0.70278833  0.14775313  0.62889622    -0.06200
C2546       C  0.69782791  0.13228322  0.65597393    -0.00200
C2547       C  0.67193574  0.13663938  0.67047218    -0.08800
C2548       C  0.65627021  0.16085143  0.66276846    -0.06200
C2549       C  0.66395641  0.17967082  0.63898583    -0.00200
C2550       C  0.68745331  0.17168201  0.62025485    -0.08700
C2551       C  0.69902056  0.18834282  0.59245789     0.61700
H2552       H  0.72152481  0.14289252  0.61666330     0.12400
H2553       H  0.63743324  0.16455792  0.67527535     0.12400
C2554       C  0.65828153  0.11479131  0.69074167     0.61900
F2555       F  0.70885777  0.21404684  0.60168266    -0.23300
F2556       F  0.67997426  0.19198866  0.56943437    -0.20600
F2557       F  0.72084446  0.17473119  0.57850659    -0.20300
F2558       F  0.66041693  0.12244065  0.72138088    -0.20300
F2559       F  0.66955930  0.08851887  0.68617031    -0.20600
F2560       F  0.63073089  0.11277245  0.68339344    -0.23300
C2561       C  0.32721553  0.78483698  0.87901457    -0.06200
C2562       C  0.34107400  0.78821156  0.90702340    -0.00200
C2563       C  0.33685153  0.81438507  0.92225732    -0.08800
C2564       C  0.31302741  0.83048829  0.91547872    -0.06200
C2565       C  0.29642934  0.82486602  0.88965195    -0.00200
C2566       C  0.30617782  0.80315685  0.86887443    -0.08700
C2567       C  0.29464289  0.79718189  0.83650599     0.61700
H2568       H  0.33187792  0.76616410  0.86590170     0.12400
H2569       H  0.30856223  0.84871876  0.92937918     0.12400
C2570       C  0.35905796  0.82884642  0.94069058     0.61900
F2571       F  0.29377986  0.82104914  0.81858196    -0.23300
F2572       F  0.26886816  0.78531695  0.83795011    -0.20600
F2573       F  0.31109400  0.77856928  0.82047614    -0.20300
F2574       F  0.38420849  0.81579835  0.93715011    -0.20300
F2575       F  0.35185615  0.82972081  0.97156780    -0.20600
F2576       F  0.36215115  0.85610529  0.93011783    -0.23300
C2577       C  0.29899988  0.64883362  0.95249790    -0.06200
C2578       C  0.28222170  0.64872168  0.92637867    -0.00200
C2579       C  0.28984966  0.66483204  0.90005286    -0.08800
C2580       C  0.31176504  0.68355616  0.90293906    -0.06200
C2581       C  0.32692541  0.68592119  0.93035292    -0.00200
C2582       C  0.32250261  0.66577686  0.95420244    -0.08700
C2583       C  0.34292444  0.65978958  0.97974728     0.61700
H2584       H  0.29384439  0.63479929  0.97137669     0.12400
H2585       H  0.31674232  0.69737671  0.88380364     0.12400
C2586       C  0.27563612  0.66261662  0.86884717     0.61900
F2587       F  0.33348619  0.63946496  0.00010841    -0.23300
F2588       F  0.34819726  0.68349379  0.99659179    -0.20600
F2589       F  0.36693483  0.64975723  0.96690087    -0.20300
F2590       F  0.25068149  0.67626256  0.86958108    -0.20300
F2591       F  0.27176253  0.63485644  0.86104024    -0.20600
F2592       F  0.29111656  0.67479908  0.84551501    -0.23300
C2593       C  0.19646585  0.79447992  0.83999981    -0.06200
C2594       C  0.19942237  0.80700184  0.86913261    -0.00200
C2595       C  0.18505487  0.79601431  0.89501075    -0.08800
C2596       C  0.16684530  0.77404836  0.89029509    -0.06200
C2597       C  0.16457663  0.76106526  0.86170412    -0.00200
C2598       C  0.17980733  0.77071781  0.83607530    -0.08700
C2599       C  0.18030786  0.75464400  0.80593928     0.61700
H2600       H  0.20890656  0.80215410  0.82097795     0.12400
H2601       H  0.15521562  0.76582467  0.90975082     0.12400
C2602       C  0.18853683  0.80499610  0.92833111     0.61900
F2603       F  0.15395819  0.74925314  0.79603543    -0.23300
F2604       F  0.19380641  0.72945781  0.81038842    -0.20600
F2605       F  0.19375572  0.76940640  0.78283744    -0.20300
F2606       F  0.16378944  0.81495045  0.93925645    -0.20300
F2607       F  0.20801469  0.82539775  0.93257288    -0.20600
F2608       F  0.19611251  0.78198217  0.94590989    -0.23300
C2609       C  0.15471304  0.64834297  0.86766918    -0.06200
C2610       C  0.14311310  0.66445710  0.89200473    -0.00200
C2611       C  0.15292730  0.65800925  0.92230481    -0.08800
C2612       C  0.17312547  0.63690979  0.92619606    -0.06200
C2613       C  0.18628770  0.62248658  0.90166699    -0.00200
C2614       C  0.17611652  0.62836418  0.87148733    -0.08700
C2615       C  0.18825219  0.61527520  0.84267902     0.61700
H2616       H  0.14899450  0.65375232  0.84438328     0.12400
H2617       H  0.18112756  0.63374105  0.94909716     0.12400
C2618       C  0.14379750  0.67372558  0.95103019     0.61900
F2619       F  0.17509825  0.62394628  0.81600405    -0.23300
F2620       F  0.18553162  0.58646031  0.84434729    -0.20600
F2621       F  0.21548054  0.62293255  0.83972527    -0.20300
F2622       F  0.14953863  0.70198657  0.94787764    -0.20300
F2623       F  0.15710225  0.66465689  0.97746486    -0.20600
F2624       F  0.11612108  0.66929552  0.95589804    -0.23300
C2625       C  0.21685340  0.88936907  0.76467629    -0.06200
C2626       C  0.24235366  0.89126707  0.75005378    -0.00200
C2627       C  0.26464554  0.89932270  0.76881670    -0.08800
C2628       C  0.26294227  0.89414820  0.80071942    -0.06200
C2629       C  0.23909555  0.88267284  0.81460309    -0.00200
C2630       C  0.21439521  0.88475767  0.79676855    -0.08700
C2631       C  0.18550914  0.88260357  0.80979650     0.61700
H2632       H  0.19879809  0.88986346  0.75072543     0.12400
H2633       H  0.28068320  0.89905603  0.81461666     0.12400
C2634       C  0.28937362  0.91521429  0.75672994     0.61900
F2635       F  0.16587905  0.89091472  0.78861121    -0.23300
F2636       F  0.18275717  0.90034422  0.83476422    -0.20600
F2637       F  0.17966474  0.85513045  0.81771928    -0.20300
F2638       F  0.28639014  0.92281659  0.72605461    -0.20300
F2639       F  0.31271861  0.89905059  0.76014441    -0.20600
F2640       F  0.29258099  0.93957373  0.77356139    -0.23300
C2641       C  0.35931376  0.75087136  0.55909898    -0.06200
C2642       C  0.38357350  0.74402138  0.57442710    -0.00200
C2643       C  0.40670452  0.73524049  0.55727090    -0.08800
C2644       C  0.40500606  0.73510284  0.52469541    -0.06200
C2645       C  0.37508471  0.73590948  0.00166937    -0.00200
C2646       C  0.35708973  0.75040900  0.52693625    -0.08700
C2647       C  0.32292221  0.74640741  0.00878333     0.61700
H2648       H  0.34178731  0.75675343  0.57301916     0.12400
H2649       H  0.42270253  0.72934486  0.51096917     0.12400
C2650       C  0.43308819  0.72677059  0.57323229     0.61900
F2651       F  0.32013574  0.73579389  0.49442096    -0.23300
F2652       F  0.31609723  0.72745873  0.98623277    -0.20600
F2653       F  0.32093119  0.77329627  0.99708769    -0.20300
F2654       F  0.42901542  0.70223172  0.58968921    -0.20300
F2655       F  0.44129128  0.74765162  0.59324529    -0.20600
F2656       F  0.45409919  0.72226115  0.55229196    -0.23300
C2657       C  0.32201008  0.80077532  0.63709622    -0.06200
C2658       C  0.34092028  0.79353069  0.66057996    -0.00200
C2659       C  0.33857732  0.80867125  0.68861472    -0.08800
C2660       C  0.31626385  0.82768929  0.69260632    -0.06200
C2661       C  0.29603180  0.83347335  0.66966965    -0.00200
C2662       C  0.29936914  0.81887207  0.64102870    -0.08700
C2663       C  0.27964496  0.82101259  0.61376008     0.61700
H2664       H  0.32411816  0.79013107  0.61525692     0.12400
H2665       H  0.31372906  0.83626801  0.71526738     0.12400
C2666       C  0.35866471  0.80478524  0.71485383     0.61900
F2667       F  0.28427950  0.84574203  0.59788545    -0.23300
F2668       F  0.25274318  0.81951181  0.62322083    -0.20600
F2669       F  0.28320015  0.79930791  0.59297073    -0.20300
F2670       F  0.38515321  0.80808117  0.70391641    -0.20300
F2671       F  0.35520859  0.77850859  0.72786556    -0.20600
F2672       F  0.35484003  0.82436892  0.73797389    -0.23300
C2673       C  0.23328143  0.62038172  0.50190149    -0.06200
C2674       C  0.24146952  0.59051289  0.98876187    -0.00200
C2675       C  0.26120345  0.57845220  0.50236850    -0.08800
C2676       C  0.26060227  0.57911601  0.53515899    -0.06200
C2677       C  0.24470489  0.59878873  0.55154668    -0.00200
C2678       C  0.22972008  0.61943734  0.53402922    -0.08700
C2679       C  0.20748572  0.63886261  0.54688433     0.61700
H2680       H  0.22310439  0.63651090  0.48853044     0.12400
H2681       H  0.27181975  0.56352913  0.54826679     0.12400
C2682       C  0.26607854  0.54372284  0.99419363     0.61900
F2683       F  0.20035479  0.65979847  0.52614296    -0.23300
F2684       F  0.21567115  0.65229009  0.57324748    -0.20600
F2685       F  0.18400475  0.62347148  0.55270640    -0.20300
F2686       F  0.27345136  0.52452568  0.01674555    -0.20300
F2687       F  0.28930978  0.55092268  0.97762657    -0.20600
F2688       F  0.29962461  0.56385834  0.47288518    -0.23300
C2689       C  0.30310106  0.65576808  0.64594428    -0.06200
C2690       C  0.29238647  0.65354398  0.61611360    -0.00200
C2691       C  0.30144940  0.67169973  0.59240544    -0.08800
C2692       C  0.32163201  0.69158314  0.59940599    -0.06200
C2693       C  0.33072198  0.69515235  0.62974642    -0.00200
C2694       C  0.32105364  0.67743477  0.65369363    -0.08700
C2695       C  0.32820997  0.68222994  0.68737832     0.61700
H2696       H  0.29550039  0.64169239  0.66368749     0.12400
H2697       H  0.32900359  0.70579803  0.58172136     0.12400
C2698       C  0.28861156  0.67121983  0.56066648     0.61900
F2699       F  0.31757992  0.66147643  0.70641930    -0.23300
F2700       F  0.31764136  0.70760048  0.69705197    -0.20600
F2701       F  0.35623173  0.68242390  0.69103688    -0.20300
F2702       F  0.26118597  0.67790576  0.56306865    -0.20300
F2703       F  0.29128607  0.64481397  0.54805710    -0.20600
F2704       F  0.30067841  0.69047876  0.54086133    -0.23300
C2705       C  0.09805005  0.74329255  0.75540293    -0.06200
C2706       C  0.09918690  0.71814607  0.73872577    -0.00200
C2707       C  0.09212075  0.69306547  0.75503475    -0.08800
C2708       C  0.09251672  0.69325434  0.78749753    -0.06200
C2709       C  0.09553664  0.71817062  0.80464739    -0.00200
C2710       C  0.09331384  0.74370463  0.78750110    -0.08700
C2711       C  0.08322006  0.77118893  0.80062647     0.61700
H2712       H  0.10042627  0.76314546  0.74365545     0.12400
H2713       H  0.08972601  0.67338563  0.79902578     0.12400
C2714       C  0.08292829  0.66589501  0.73996556     0.61900
F2715       F  0.06521174  0.78373738  0.78014255    -0.23300
F2716       F  0.10512303  0.78924246  0.80485384    -0.20600
F2717       F  0.06888410  0.76713973  0.82788992    -0.20300
F2718       F  0.10351786  0.64601976  0.74213505    -0.20300
F2719       F  0.07564636  0.66970967  0.70941300    -0.20600
F2720       F  0.06005457  0.65555682  0.75524418    -0.23300
C2721       C  0.16030417  0.79023737  0.71059471    -0.06200
C2722       C  0.16020594  0.77585520  0.68254535    -0.00200
C2723       C  0.17616035  0.78607429  0.65738915    -0.08800
C2724       C  0.19432092  0.80804153  0.66277335    -0.06200
C2725       C  0.19708398  0.82025802  0.69184436    -0.00200
C2726       C  0.17838476  0.81275238  0.71560111    -0.08700
C2727       C  0.17682862  0.82866223  0.74548423     0.61700
H2728       H  0.14703635  0.78284944  0.72900423     0.12400
H2729       H  0.20749323  0.81508558  0.64420554     0.12400
C2730       C  0.17679110  0.77336696  0.62526294     0.61900
F2731       F  0.20248382  0.83021458  0.75880745    -0.23300
F2732       F  0.15911573  0.81618525  0.76649163    -0.20600
F2733       F  0.16689904  0.85511554  0.73913813    -0.20300
F2734       F  0.19908503  0.75558743  0.62287223    -0.20300
F2735       F  0.17945230  0.79429271  0.60319856    -0.20600
F2736       F  0.15322170  0.75880311  0.61840870    -0.23300
C2737       C  0.17948933  0.66909784  0.67893062    -0.06200
C2738       C  0.15773973  0.67399053  0.65796979    -0.00200
C2739       C  0.15317996  0.65293966  0.63551465    -0.08800
C2740       C  0.17375665  0.63245972  0.63055946    -0.06200
C2741       C  0.19839395  0.63107472  0.64792079    -0.00200
C2742       C  0.19960686  0.64822076  0.67485455    -0.08700
C2743       C  0.22128660  0.64479045  0.70004900     0.61700
H2744       H  0.18085060  0.68255104  0.69888871     0.12400
H2745       H  0.17034168  0.61818091  0.61199782     0.12400
C2746       C  0.12686344  0.65050620  0.61716217     0.61900
F2747       F  0.21874671  0.66485725  0.72288611    -0.23300
F2748       F  0.24754075  0.64719091  0.68847387    -0.20600
F2749       F  0.21814523  0.61892822  0.71407278    -0.20300
F2750       F  0.12868393  0.66690483  0.59085319    -0.20300
F2751       F  0.10446484  0.65830996  0.63473977    -0.20600
F2752       F  0.12233187  0.62306124  0.60816280    -0.23300
C2753       C  0.14645977  0.32624084  0.88571703    -0.06200
C2754       C  0.13978836  0.30353783  0.90582424    -0.00200
C2755       C  0.15372837  0.30342334  0.93477813    -0.08800
C2756       C  0.17693328  0.32087873  0.93878443    -0.06200
C2757       C  0.18657185  0.34003064  0.91612399    -0.00200
C2758       C  0.16859703  0.34508330  0.89091436    -0.08700
C2759       C  0.17137001  0.37012005  0.86953191     0.61700
H2760       H  0.13547898  0.32886376  0.86445825     0.12400
H2761       H  0.18885290  0.31869516  0.95969235     0.12400
C2762       C  0.14454959  0.28521857  0.96180584     0.61900
F2763       F  0.14628684  0.37710211  0.85668668    -0.23300
F2764       F  0.18923116  0.36386171  0.84573371    -0.20600
F2765       F  0.18030192  0.39337678  0.88560914    -0.20300
F2766       F  0.14699241  0.25710022  0.95482744    -0.20300
F2767       F  0.11765710  0.29157409  0.96910720    -0.20600
F2768       F  0.15998926  0.29004655  0.98803045    -0.23300
C2769       C  0.31243944  0.27795576  0.95637062    -0.06200
C2770       C  0.32518877  0.27471211  0.92762066    -0.00200
C2771       C  0.31707211  0.29155141  0.90226892    -0.08800
C2772       C  0.29718182  0.31224826  0.90715073    -0.06200
C2773       C  0.28392135  0.31496821  0.93571066    -0.00200
C2774       C  0.29116561  0.29729844  0.96069523    -0.08700
C2775       C  0.27689153  0.29714694  0.99185794     0.61700
H2776       H  0.31809337  0.26410695  0.97521909     0.12400
H2777       H  0.29068111  0.32554710  0.88818919     0.12400
C2778       C  0.32817062  0.28677998  0.86997906     0.61900
F2779       F  0.26811522  0.27021965  0.99859789    -0.23300
F2780       F  0.25429633  0.31450885  0.99311565    -0.20600
F2781       F  0.29527350  0.30545070  0.01423949    -0.20300
F2782       F  0.31980572  0.26082300  0.85948133    -0.20300
F2783       F  0.35632655  0.28772974  0.87031782    -0.20600
F2784       F  0.31913532  0.30694145  0.84928001    -0.23300
C2785       C  0.20926905  0.18729977  0.85688968    -0.06200
C2786       C  0.20529555  0.16651175  0.87932765    -0.00200
C2787       C  0.18269539  0.16808657  0.89969128    -0.08800
C2788       C  0.16344037  0.18935910  0.89531017    -0.06200
C2789       C  0.16683662  0.20953057  0.87222242    -0.00200
C2790       C  0.19029095  0.20898389  0.85290695    -0.08700
C2791       C  0.19529283  0.23087394  0.82823323     0.61700
H2792       H  0.22723602  0.18605499  0.84218161     0.12400
H2793       H  0.14570059  0.19071457  0.91032081     0.12400
C2794       C  0.17854429  0.14743092  0.92566417     0.61900
F2795       F  0.17223521  0.23327347  0.81006813    -0.23300
F2796       F  0.21714612  0.22396688  0.80925874    -0.20600
F2797       F  0.20117257  0.25623499  0.84194860    -0.20300
F2798       F  0.15840609  0.15612135  0.94603781    -0.20300
F2799       F  0.20253695  0.14395620  0.94217439    -0.20600
F2800       F  0.17048702  0.12241200  0.91307289    -0.23300
C2801       C  0.31861239  0.14469845  0.87126115    -0.06200
C2802       C  0.30097211  0.13492726  0.89530637    -0.00200
C2803       C  0.30809656  0.14384399  0.92570732    -0.08800
C2804       C  0.32902026  0.16411613  0.92967450    -0.06200
C2805       C  0.34535420  0.17540706  0.90546215    -0.00200
C2806       C  0.34069287  0.16388239  0.87560398    -0.08700
C2807       C  0.35797842  0.17187553  0.84770728     0.61700
H2808       H  0.31403019  0.13931533  0.84787324     0.12400
H2809       H  0.33122342  0.17301015  0.95234613     0.12400
C2810       C  0.29392873  0.13267792  0.95463730     0.61900
F2811       F  0.35095961  0.15678649  0.82165523    -0.23300
F2812       F  0.38522659  0.16606942  0.85375476    -0.20600
F2813       F  0.35441370  0.19994065  0.84071489    -0.20300
F2814       F  0.26607367  0.13775706  0.95362495    -0.20300
F2815       F  0.30374412  0.14497850  0.98132687    -0.20600
F2816       F  0.29894820  0.10428054  0.95734052    -0.23300
C2817       C  0.23074690  0.40109748  0.54794077    -0.06200
C2818       C  0.25039634  0.38395911  0.56290176    -0.00200
C2819       C  0.27318254  0.37475760  0.54449470    -0.08800
C2820       C  0.27096909  0.37634138  0.51220221    -0.06200
C2821       C  0.24904900  0.38958489  0.49734153    -0.00200
C2822       C  0.23065974  0.40528365  0.51569210    -0.08700
C2823       C  0.21154565  0.42729431  0.50249483     0.61700
H2824       H  0.21527710  0.41170103  0.56152837     0.12400
H2825       H  0.28596021  0.36548704  0.49841548     0.12400
C2826       C  0.30032595  0.36403105  0.55705409     0.61900
F2827       F  0.21431077  0.45185156  0.51911052    -0.23300
F2828       F  0.21399014  0.42591656  0.96778815    -0.20600
F2829       F  0.21638966  0.44842804  0.01270060    -0.20300
F2830       F  0.29664579  0.33883809  0.57228316    -0.20300
F2831       F  0.31173210  0.38414637  0.57603316    -0.20600
F2832       F  0.31944986  0.35931294  0.53395628    -0.23300
C2833       C  0.09003964  0.23665197  0.79400716    -0.06200
C2834       C  0.10908176  0.25404486  0.80939413    -0.00200
C2835       C  0.12706074  0.27096197  0.79076643    -0.08800
C2836       C  0.12479874  0.26969381  0.75862724    -0.06200
C2837       C  0.10552941  0.25308585  0.74316411    -0.00200
C2838       C  0.08730749  0.23659127  0.76127494    -0.08700
C2839       C  0.06406632  0.21966322  0.74748732     0.61700
H2840       H  0.07625589  0.22383810  0.80778421     0.12400
H2841       H  0.13898277  0.28202922  0.74503939     0.12400
C2842       C  0.14869391  0.29168359  0.80223757     0.61900
F2843       F  0.03986374  0.22608889  0.76260087    -0.23300
F2844       F  0.06943799  0.19141267  0.75127379    -0.20600
F2845       F  0.06013896  0.22511238  0.71644725    -0.20300
F2846       F  0.15868616  0.28550902  0.83093054    -0.20300
F2847       F  0.13755629  0.31831898  0.80249388    -0.20600
F2848       F  0.17133211  0.29190014  0.78283200    -0.23300
C2849       C  0.16333170  0.31493383  0.68407756    -0.06200
C2850       C  0.14626909  0.30559874  0.65978907    -0.00200
C2851       C  0.14480905  0.32348922  0.63354624    -0.08800
C2852       C  0.16490179  0.34497219  0.62973891    -0.06200
C2853       C  0.18580840  0.35036498  0.65178135    -0.00200
C2854       C  0.18235510  0.33707661  0.68118590    -0.08700
C2855       C  0.19913117  0.34486124  0.70956628     0.61700
H2856       H  0.16296827  0.30312459  0.70538349     0.12400
H2857       H  0.16507400  0.35607768  0.60808808     0.12400
C2858       C  0.12257741  0.32079514  0.60952072     0.61900
F2859       F  0.19521327  0.37287825  0.71621152    -0.23300
F2860       F  0.19115189  0.32984106  0.73551195    -0.20600
F2861       F  0.22666749  0.33947446  0.70497710    -0.20300
F2862       F  0.09769317  0.31488778  0.62353530    -0.20300
F2863       F  0.12944633  0.29997119  0.58887037    -0.20600
F2864       F  0.11936863  0.34559107  0.59313953    -0.23300
C2865       C  0.40030266  0.22118962  0.54278004    -0.06200
C2866       C  0.38199986  0.24007410  0.55718350    -0.00200
C2867       C  0.36941310  0.26094155  0.53799802    -0.08800
C2868       C  0.37238505  0.25899075  0.50574245    -0.06200
C2869       C  0.38738055  0.23765107  0.49160651    -0.00200
C2870       C  0.40382386  0.22020386  0.51044100    -0.08700
C2871       C  0.42572316  0.20093987  0.49763255     0.61700
H2872       H  0.41159695  0.20642618  0.55697324     0.12400
H2873       H  0.36109132  0.27313890  0.49105135     0.12400
C2874       C  0.35087223  0.28394013  0.54991887     0.61900
F2875       F  0.45020856  0.20596172  0.51273360    -0.23300
F2876       F  0.44664212  0.19579875  0.01122265    -0.20600
F2877       F  0.42765803  0.19868235  0.96457677    -0.20300
F2878       F  0.32931020  0.27187556  0.56528901    -0.20300
F2879       F  0.33997700  0.30026951  0.52647627    -0.20600
F2880       F  0.36515526  0.30192726  0.56878389    -0.23300
C2881       C  0.29910058  0.31480546  0.64855512    -0.06200
C2882       C  0.27652985  0.31143306  0.62925848    -0.00200
C2883       C  0.27330341  0.28661521  0.61187033    -0.08800
C2884       C  0.29445536  0.26673664  0.61291793    -0.06200
C2885       C  0.31847888  0.27149895  0.63002177    -0.00200
C2886       C  0.31963658  0.29455159  0.65016900    -0.08700
C2887       C  0.34210971  0.29794815  0.67350771     0.61700
H2888       H  0.30051992  0.33352885  0.66254279     0.12400
H2889       H  0.29279187  0.24761008  0.59965241     0.12400
C2890       C  0.24805262  0.28102295  0.59230009     0.61900
F2891       F  0.33454098  0.31627525  0.69665024    -0.23300
F2892       F  0.36475905  0.30848571  0.65844268    -0.20600
F2893       F  0.34816952  0.27256446  0.68744908    -0.20300
F2894       F  0.24100897  0.30460984  0.57539670    -0.20300
F2895       F  0.22636024  0.27345306  0.61119692    -0.20600
F2896       F  0.25247760  0.25940775  0.57167588    -0.23300
C2897       C  0.21623668  0.10908592  0.75936965    -0.06200
C2898       C  0.23931495  0.09726388  0.74505781    -0.00200
C2899       C  0.25711081  0.08093530  0.76362921    -0.08800
C2900       C  0.25521658  0.08312043  0.79591398    -0.06200
C2901       C  0.23513038  0.09962799  0.81062763    -0.00200
C2902       C  0.21295472  0.10938926  0.79183579    -0.08700
C2903       C  0.18549523  0.11883922  0.80463009     0.61700
H2904       H  0.20101968  0.11899215  0.74499705     0.12400
H2905       H  0.27018444  0.07206701  0.80984343     0.12400
C2906       C  0.27777800  0.06024806  0.75095041     0.61900
F2907       F  0.16696174  0.12530799  0.78149943    -0.23300
F2908       F  0.18862082  0.14247494  0.82223688    -0.20600
F2909       F  0.17400687  0.09738572  0.82193631    -0.20300
F2910       F  0.30397911  0.06878742  0.75867426    -0.20300
F2911       F  0.27612255  0.05719942  0.71931311    -0.20600
F2912       F  0.27290838  0.03419803  0.76407493    -0.23300
C2913       C  0.19541816  0.17281788  0.70922600    -0.06200
C2914       C  0.20377563  0.16308936  0.68033480    -0.00200
C2915       C  0.19222416  0.17448940  0.65302836    -0.08800
C2916       C  0.17253062  0.19572163  0.65592634    -0.06200
C2917       C  0.16471151  0.20593651  0.68492679    -0.00200
C2918       C  0.17586476  0.19415366  0.71201399    -0.08700
C2919       C  0.16794189  0.20484565  0.74354490     0.61700
H2920       H  0.20536310  0.16453025  0.72958032     0.12400
H2921       H  0.16363258  0.20522770  0.63551919     0.12400
C2922       C  0.20080598  0.16473232  0.62107829     0.61900
F2923       F  0.14019470  0.20080534  0.74822012    -0.23300
F2924       F  0.17405930  0.23309339  0.74538907    -0.20600
F2925       F  0.18184818  0.19093269  0.76682695    -0.20300
F2926       F  0.22803493  0.17120993  0.61569141    -0.20300
F2927       F  0.18538915  0.17725792  0.59803732    -0.20600
F2928       F  0.19722153  0.13616340  0.61883467    -0.23300
C2929       C  0.31657816  0.13615401  0.63783381    -0.06200
C2930       C  0.30225756  0.14148869  0.66556322    -0.00200
C2931       C  0.31481984  0.16130650  0.68644111    -0.08800
C2932       C  0.33910780  0.17536472  0.67733715    -0.06200
C2933       C  0.34933677  0.17453013  0.64704237    -0.00200
C2934       C  0.34037074  0.15145260  0.62882948    -0.08700
C2935       C  0.35724373  0.13949218  0.60267384     0.61700
H2936       H  0.30930861  0.11992108  0.62262691     0.12400
H2937       H  0.34759164  0.19106939  0.69259559     0.12400
C2938       C  0.30422997  0.17024224  0.71830413     0.61900
F2939       F  0.35749854  0.11049703  0.60461509    -0.23300
F2940       F  0.38426185  0.14827865  0.60422947    -0.20600
F2941       F  0.34582814  0.14706592  0.57466498    -0.20300
F2942       F  0.27721864  0.16410248  0.72444356    -0.20300
F2943       F  0.30658770  0.19906130  0.72136891    -0.20600
F2944       F  0.32025543  0.15767961  0.74071708    -0.23300
C2945       C  0.65443812  0.79288208  0.89106773    -0.06200
C2946       C  0.64445093  0.79430372  0.92157319    -0.00200
C2947       C  0.65298321  0.81871356  0.93885837    -0.08800
C2948       C  0.67402348  0.83647164  0.92681002    -0.06200
C2949       C  0.68575613  0.83300083  0.89747354    -0.00200
C2950       C  0.67298685  0.81246446  0.87797913    -0.08700
C2951       C  0.67819838  0.81048327  0.84326022     0.61700
H2952       H  0.64849072  0.77508429  0.87734651     0.12400
H2953       H  0.68248576  0.85255335  0.94130990     0.12400
C2954       C  0.64056944  0.82755222  0.96952115     0.61900
F2955       F  0.66375559  0.78869558  0.82986761    -0.23300
F2956       F  0.70558123  0.80604149  0.83681625    -0.20600
F2957       F  0.66929006  0.83481566  0.82907684    -0.20300
F2958       F  0.61249750  0.83044965  0.96638488    -0.20300
F2959       F  0.65024992  0.85335564  0.97927429    -0.20600
F2960       F  0.64711452  0.80844201  0.99230447    -0.23300
C2961       C  0.69415780  0.65753062  0.96963848    -0.06200
C2962       C  0.70589738  0.65334564  0.94061947    -0.00200
C2963       C  0.69501675  0.66751548  0.91456881    -0.08800
C2964       C  0.67517952  0.68832037  0.91934751    -0.06200
C2965       C  0.66500426  0.69432528  0.94886345    -0.00200
C2966       C  0.67305745  0.67712752  0.97417114    -0.08700
C2967       C  0.66085029  0.67995574  0.00609046     0.61700
H2968       H  0.70246556  0.64606869  0.98904228     0.12400
H2969       H  0.66773684  0.70054711  0.89995770     0.12400
C2970       C  0.70388027  0.66076854  0.88184579     0.61900
F2971       F  0.67146312  0.66054806  0.02669688    -0.23300
F2972       F  0.63283727  0.67599313  0.00519822    -0.20600
F2973       F  0.66685273  0.70611178  0.01707785    -0.20300
F2974       F  0.68642981  0.67257998  0.86024406    -0.20300
F2975       F  0.70353793  0.63222077  0.87736678    -0.20600
F2976       F  0.72999706  0.67075738  0.87643799    -0.23300
C2977       C  0.82384254  0.77865654  0.89453041    -0.06200
C2978       C  0.81723190  0.75573747  0.87595424    -0.00200
C2979       C  0.78989938  0.75298900  0.86451270    -0.08800
C2980       C  0.77246426  0.77601873  0.86742200    -0.06200
C2981       C  0.77974240  0.79934780  0.88497145    -0.00200
C2982       C  0.80462218  0.79932245  0.90123015    -0.08700
C2983       C  0.81092491  0.82007599  0.92625604     0.61700
H2984       H  0.84387208  0.77972033  0.90520136     0.12400
H2985       H  0.75247926  0.77545548  0.85648195     0.12400
C2986       C  0.77653970  0.72724929  0.85036043     0.61900
F2987       F  0.82247653  0.84345512  0.91281047    -0.23300
F2988       F  0.82913666  0.80885957  0.94738467    -0.20600
F2989       F  0.78746987  0.82720685  0.94239802    -0.20300
F2990       F  0.75425342  0.71983989  0.86841919    -0.20300
F2991       F  0.79316466  0.70417028  0.84829681    -0.20600
F2992       F  0.76720961  0.73368745  0.82103422    -0.23300
C2993       C  0.84468420  0.66471447  0.93073879    -0.06200
C2994       C  0.85469564  0.66309429  0.90036169    -0.00200
C2995       C  0.84366249  0.64098292  0.88219309    -0.08800
C2996       C  0.81868728  0.62796816  0.89098669    -0.06200
C2997       C  0.80537026  0.63371630  0.91916794    -0.00200
C2998       C  0.81984239  0.65186527  0.94033192    -0.08700
C2999       C  0.81147074  0.65811897  0.97375545     0.61700
H3000       H  0.85448759  0.67952651  0.94598079     0.12400
H3001       H  0.81021867  0.61252690  0.87561997     0.12400
C3002       C  0.86007044  0.62693065  0.85690542     0.61900
F3003       F  0.81957568  0.68488074  0.98210254    -0.23300
F3004       F  0.82448939  0.63929853  0.99315843    -0.20600
F3005       F  0.78367423  0.65698191  0.97914453    -0.20300
F3006       F  0.88779991  0.63246309  0.85994547    -0.20300
F3007       F  0.85083438  0.63565697  0.82830496    -0.20600
F3008       F  0.85700550  0.59810049  0.85878333    -0.23300
C3009       C  0.76201633  0.57428081  0.55661660    -0.06200
C3010       C  0.75164302  0.59940879  0.56913898    -0.00200
C3011       C  0.73847326  0.61887131  0.54911829    -0.08800
C3012       C  0.73844913  0.61348301  0.51747091    -0.06200
C3013       C  0.74754902  0.58477131  0.99987093    -0.00200
C3014       C  0.76121518  0.56883690  0.52456400    -0.08700
C3015       C  0.79327632  0.55666019  0.00426521     0.61700
H3016       H  0.77191497  0.55949931  0.57201946     0.12400
H3017       H  0.70605732  0.59948725  0.00174529     0.12400
C3018       C  0.72657888  0.64661185  0.55980038     0.61900
F3019       F  0.77975600  0.52316572  0.53515552    -0.23300
F3020       F  0.81612282  0.57344797  0.00854973    -0.20600
F3021       F  0.79028798  0.55061151  0.97329526    -0.20300
F3022       F  0.74645747  0.66143887  0.57499944    -0.20300
F3023       F  0.70425884  0.64212225  0.57880224    -0.20600
F3024       F  0.71766470  0.66325142  0.53553366    -0.23300
C3025       C  0.90779285  0.73401609  0.79581060    -0.06200
C3026       C  0.88225296  0.72431143  0.80697863    -0.00200
C3027       C  0.86166419  0.71710911  0.78534967    -0.08800
C3028       C  0.86791501  0.71735671  0.75406660    -0.06200
C3029       C  0.89340408  0.72582077  0.74267472    -0.00200
C3030       C  0.91356964  0.73528364  0.76361484    -0.08700
C3031       C  0.94097280  0.74584543  0.75190161     0.61700
H3032       H  0.92330905  0.73991186  0.81239531     0.12400
H3033       H  0.85248670  0.71086865  0.73778809     0.12400
C3034       C  0.83244462  0.71092967  0.79463899     0.61900
F3035       F  0.95728561  0.75549057  0.77570319    -0.23300
F3036       F  0.93696769  0.76771043  0.73133314    -0.20600
F3037       F  0.95465647  0.72439529  0.73704001    -0.20300
F3038       F  0.82239360  0.73427316  0.80933838    -0.20300
F3039       F  0.83143538  0.68772254  0.81365202    -0.20600
F3040       F  0.81554028  0.70560687  0.76967788    -0.23300
C3041       C  0.84235373  0.65882199  0.68833814    -0.06200
C3042       C  0.85884940  0.66821947  0.66337053    -0.00200
C3043       C  0.85986465  0.65029034  0.63730182    -0.08800
C3044       C  0.83931745  0.62932142  0.63401999    -0.06200
C3045       C  0.81861188  0.62439133  0.65655973    -0.00200
C3046       C  0.82328874  0.63667395  0.68603057    -0.08700
C3047       C  0.80777749  0.62760484  0.71494906     0.61700
H3048       H  0.84323563  0.67036930  0.70968765     0.12400
H3049       H  0.83886187  0.61808800  0.61257532     0.12400
C3050       C  0.88218101  0.65207563  0.61309127     0.61900
F3051       F  0.81726402  0.64118170  0.74103423    -0.23300
F3052       F  0.81156983  0.59919520  0.71965192    -0.20600
F3053       F  0.78013110  0.63340890  0.71243829    -0.20300
F3054       F  0.90705017  0.65850775  0.62663560    -0.20300
F3055       F  0.87534472  0.67196023  0.59113965    -0.20600
F3056       F  0.88545959  0.62660411  0.59830831    -0.23300
C3057       C  0.59440553  0.73854123  0.56562353    -0.06200
C3058       C  0.62133648  0.73632308  0.57699531    -0.00200
C3059       C  0.64349991  0.73425278  0.55608974    -0.08800
C3060       C  0.63804878  0.73487398  0.52457455    -0.06200
C3061       C  0.61010532  0.73805198  0.01057893    -0.00200
C3062       C  0.58902832  0.73850197  0.53355438    -0.08700
C3063       C  0.56593690  0.70990350  0.01737673     0.61700
H3064       H  0.57781138  0.74127345  0.58199801     0.12400
H3065       H  0.64887013  0.75940772  0.00850801     0.12400
C3066       C  0.67291005  0.73107951  0.56675081     0.61900
F3067       F  0.55898946  0.76597715  0.50303738    -0.23300
F3068       F  0.57376618  0.68625342  0.00135296    -0.20600
F3069       F  0.55209976  0.72784295  0.99769226    -0.20300
F3070       F  0.68011113  0.75320581  0.58554235    -0.20300
F3071       F  0.69133064  0.73054621  0.54238114    -0.20600
F3072       F  0.67531172  0.70601086  0.58250745    -0.23300
C3073       C  0.70959703  0.71398898  0.63618829    -0.06200
C3074       C  0.68398895  0.70531965  0.64773734    -0.00200
C3075       C  0.68160997  0.67843790  0.66107615    -0.08800
C3076       C  0.70264449  0.65924628  0.65648148    -0.06200
C3077       C  0.72742790  0.66702146  0.64272320    -0.00200
C3078       C  0.73208809  0.69570757  0.63477756    -0.08700
C3079       C  0.76015956  0.70841049  0.62760501     0.61700
H3080       H  0.71196484  0.73548220  0.62857042     0.12400
H3081       H  0.69997619  0.63792099  0.66467297     0.12400
C3082       C  0.65806290  0.66975691  0.68143589     0.61900
F3083       F  0.75784682  0.73463661  0.61397638    -0.23300
F3084       F  0.77533713  0.69198197  0.60782161    -0.20600
F3085       F  0.77439790  0.71178866  0.65487768    -0.20300
F3086       F  0.63746045  0.65938536  0.66306322    -0.20300
F3087       F  0.64893133  0.69204957  0.69886112    -0.20600
F3088       F  0.66605765  0.64908885  0.70202721    -0.23300
C3089       C  0.77996529  0.86627057  0.77010598    -0.06200
C3090       C  0.75851160  0.87952969  0.75446914    -0.00200
C3091       C  0.73907789  0.89459287  0.77212598    -0.08800
C3092       C  0.73797125  0.88997696  0.80416861    -0.06200
C3093       C  0.75651354  0.87202807  0.81954408    -0.00200
C3094       C  0.78005298  0.86279473  0.80236421    -0.08700
C3095       C  0.80546084  0.84930174  0.81626807     0.61700
H3096       H  0.79585811  0.85640470  0.75668021     0.12400
H3097       H  0.72184830  0.90016704  0.81719484     0.12400
C3098       C  0.71924547  0.91565602  0.75841639     0.61900
F3099       F  0.82483545  0.84223045  0.79418975    -0.23300
F3100       F  0.79858356  0.82489825  0.83142670    -0.20600
F3101       F  0.81813680  0.86804879  0.83584449    -0.20300
F3102       F  0.69270540  0.90566858  0.76128312    -0.20300
F3103       F  0.72474648  0.92130522  0.72766615    -0.20600
F3104       F  0.72129315  0.94063843  0.77433614    -0.23300
C3105       C  0.81103386  0.80781583  0.67187036    -0.06200
C3106       C  0.79701592  0.80871127  0.69998406    -0.00200
C3107       C  0.80292865  0.78856714  0.72319592    -0.08800
C3108       C  0.82373400  0.76885834  0.71753201    -0.06200
C3109       C  0.83742704  0.76766076  0.68905406    -0.00200
C3110       C  0.83005210  0.78672665  0.66532963    -0.08700
C3111       C  0.84175388  0.78521765  0.63303759     0.61700
H3112       H  0.80580492  0.82302569  0.65420224     0.12400
H3113       H  0.82848668  0.75359530  0.73520252     0.12400
C3114       C  0.78761383  0.78600205  0.75360035     0.61900
F3115       F  0.84270061  0.75786941  0.62271163    -0.23300
F3116       F  0.86763054  0.79643672  0.63344064    -0.20600
F3117       F  0.82622935  0.80043113  0.61213123    -0.20300
F3118       F  0.77416470  0.76045874  0.75455879    -0.20300
F3119       F  0.76852996  0.80692560  0.75798911    -0.20600
F3120       F  0.80608527  0.78699585  0.77772659    -0.23300
C3121       C  0.68521704  0.83438162  0.65192134    -0.06200
C3122       C  0.69858423  0.83033071  0.68029208    -0.00200
C3123       C  0.68375293  0.81434031  0.70364853    -0.08800
C3124       C  0.65876778  0.80099243  0.69545160    -0.06200
C3125       C  0.64871749  0.80079915  0.66514517    -0.00200
C3126       C  0.65987746  0.82158862  0.64488519    -0.08700
C3127       C  0.64393750  0.83437523  0.61837651     0.61700
H3128       H  0.69391473  0.84849546  0.63501417     0.12400
H3129       H  0.64912874  0.78653908  0.71144059     0.12400
C3130       C  0.69383484  0.80880042  0.73677308     0.61900
F3131       F  0.64712102  0.86323357  0.61825470    -0.23300
F3132       F  0.61612951  0.82908916  0.62131109    -0.20600
F3133       F  0.65379854  0.82425705  0.59059061    -0.20300
F3134       F  0.71829842  0.79446960  0.73668187    -0.20300
F3135       F  0.67559185  0.79243555  0.75355598    -0.20600
F3136       F  0.69667246  0.83325110  0.75320019    -0.23300
loop_ 
_geom_bond_atom_site_label_1 
_geom_bond_atom_site_label_2 
_geom_bond_distance 
_geom_bond_site_symmetry_2 
_ccdc_geom_bond_type 
C1            C2   1.523       .  S
C1            C7   1.531       .  S
C1            C5   1.576       .  S
C1         C1554   1.560       .  S
C2            H9   1.074       .  S
C2            C3   1.363       .  D
C3            C4   1.553       .  S
C3         C1522   1.505       .  S
C4            C8   1.534       .  S
C4            C6   1.539       .  S
C4           H10   1.108       .  S
C5           H11   1.084       .  S
C5            C6   1.393       .  D
C6          C185   1.514       .  S
C7           H12   1.088       .  S
C7            C8   1.356       .  D
C8         C1538   1.474       .  S
C13          C14   1.535       .  S
C13          C19   1.546       .  S
C13          C17   1.555       .  S
C13        C1557   1.555       .  S
C14          H21   1.074       .  S
C14          C15   1.357       .  D
C15          C16   1.537       .  S
C15        C1490   1.487       .  S
C16          C20   1.524       .  S
C16          C18   1.542       .  S
C16          H22   1.111       .  S
C17          H23   1.085       .  S
C17          C18   1.385       .  D
C18         C546   1.497       .  S
C19          H24   1.087       .  S
C19          C20   1.360       .  D
C20        C1506   1.467       .  S
C25          C26   1.545       .  S
C25          C31   1.543       .  S
C25          C29   1.564       .  S
C25        C1474   1.576       .  S
C26          H33   1.087       .  S
C26          C27   1.357       .  D
C27          C28   1.529       .  S
C27        C1541   1.480       .  S
C28          C32   1.545       .  S
C28          C30   1.544       .  S
C28          H34   1.110       .  S
C29          H35   1.075       .  S
C29          C30   1.385       .  D
C30         C103   1.501       .  S
C31          H36   1.087       .  S
C31          C32   1.366       .  D
C32        C1461   1.497       .  S
C37          C38   1.525       .  S
C37          C43   1.551       .  S
C37          C41   1.567       .  S
C37        C1477   1.572       .  S
C38          H45   1.088       .  S
C38          C39   1.345       .  D
C39          C40   1.523       .  S
C39        C1509   1.454       .  S
C40          C44   1.543       .  S
C40          C42   1.529       .  S
C40          H46   1.090       .  S
C41          H47   1.078       .  S
C41          C42   1.379       .  D
C42         C516   1.501       .  S
C43          H48   1.077       .  S
C43          C44   1.386       .  D
C44        C1442   1.525       .  S
C49          C50   1.552       .  S
C49          C55   1.531       .  S
C49          C53   1.558       .  S
C49        C1426   1.561       .  S
C50          H57   1.077       .  S
C50          C51   1.370       .  D
C51          C52   1.544       .  S
C51        C1458   1.508       .  S
C52          C56   1.543       .  S
C52          C54   1.554       .  S
C52          H58   1.111       .  S
C53          H59   1.085       .  S
C53          C54   1.385       .  D
C54         C289   1.519       .  S
C55          H60   1.087       .  S
C55          C56   1.346       .  D
C56        C1410   1.469       .  S
C61          C62   1.528       .  S
C61          C67   1.541       .  S
C61          C65   1.575       .  S
C61        C1429   1.562       .  S
C62          H69   1.087       .  S
C62          C63   1.360       .  D
C63          C64   1.550       .  S
C63        C1445   1.490       .  S
C64          C68   1.529       .  S
C64          C66   1.533       .  S
C64          H70   1.110       .  S
C65          H71   1.084       .  S
C65          C66   1.394       .  D
C66         C663   1.504       .  S
C67          H72   1.086       .  S
C67          C68   1.361       .  D
C68        C1394   1.487       .  S
C73          C74   1.540       .  S
C73          C79   1.523       .  S
C73          C77   1.569       .  S
C73        C1378   1.572       .  S
C74          H81   1.087       .  S
C74          C75   1.372       .  D
C75          C76   1.529       .  S
C75        C1397   1.498       .  S
C76          C80   1.555       .  S
C76          C78   1.541       .  S
C76          H82   1.104       .  S
C77          H83   1.081       .  S
C77          C78   1.382       .  D
C78         C685   1.501       .  S
C79          H84   1.084       .  S
C79          C80   1.361       .  D
C80        C1493   1.487       .  S
C85          C86   1.517       .  S
C85          C91   1.543       .  S
C85          C89   1.575       .  S
C85        C1381   1.567       .  S
C86          H93   1.089       .  S
C86          C87   1.345       .  D
C87          C88   1.531       .  S
C87        C1413   1.474       .  S
C88          C92   1.540       .  S
C88          C90   1.527       .  S
C88          H94   1.082       .  S
C89          H95   1.084       .  S
C89          C90   1.387       .  D
C90         C207   1.499       .  S
C91          H96   1.072       .  S
C91          C92   1.382       .  D
C92        C1525   1.524       .  S
In97         O99   2.260       .  S
In97        O100   2.276       .  S
In97        O108   2.294       .  S
In97        O102   2.329       .  S
In97        O104   2.338       .  S
In97        O105   2.281       .  S
In97        O106   2.282       .  S
In97        O109   2.283       .  S
C98         O104   1.268       .  A
C98         O106   1.260       .  A
C98         C176   1.508       .  S
O99         C107   1.259       .  A
O100        C107   1.261       .  A
C101        O108   1.259       .  A
C101        O102   1.264       .  A
C101        C114   1.506   1_655  S
C103        O105   1.262       .  A
C103        O109   1.266       .  A
C107       C1853   1.476       .  S
In110       O112   2.264       .  S
In110       O113   2.306       .  S
In110       O121   2.298       .  S
In110       O115   2.331       .  S
In110       O117   2.344       .  S
In110       O118   2.272       .  S
In110       O119   2.284       .  S
In110       O122   2.262       .  S
C111        O117   1.267       .  A
C111        O119   1.260       .  A
C111        C124   1.509       .  S
O112        C120   1.267       .  A
O113        C120   1.261       .  A
C114        O121   1.259       .  A
C114        O115   1.263       .  A
C116        O118   1.259       .  A
C116        O122   1.259       .  A
C116       C1870   1.474       .  S
C120        C406   1.505       .  S
In123       O125   2.253       .  S
In123       O126   2.252       .  S
In123       O134   2.266       .  S
In123       O128   2.327       .  S
In123       O130   2.339       .  S
In123       O131   2.284       .  S
In123       O132   2.279       .  S
In123       O135   2.290       .  S
C124        O130   1.269       .  A
C124        O132   1.260       .  A
O125        C133   1.261       .  A
O126        C133   1.262       .  A
C127        O134   1.258       .  A
C127        O128   1.268       .  A
C127        C140   1.499   1_565  S
C129        C442   1.502       .  S
C129        O131   1.260       .  A
C129        O135   1.266       .  A
C133       C1801   1.469       .  S
In136       O138   2.275       .  S
In136       O139   2.300       .  S
In136       O147   2.274       .  S
In136       O141   2.323       .  S
In136       O143   2.337       .  S
In136       O144   2.269       .  S
In136       O145   2.276       .  S
In136       O148   2.245       .  S
C137        O143   1.267       .  A
C137        O145   1.260       .  A
C137        C163   1.507       .  S
O138        C146   1.263       .  A
O139        C146   1.259       .  A
C140        O147   1.259       .  A
C140        O141   1.265       .  A
C142        O144   1.263       .  A
C142        O148   1.261       .  A
C142       C1818   1.471       .  S
C146        C310   1.499       .  S
In149       O151   2.269       .  S
In149       O152   2.246       .  S
In149       O160   2.349       .  S
In149       O154   2.308       .  S
In149       O156   2.263       .  S
In149       O157   2.297       .  S
In149       O158   2.327       .  S
In149       O161   2.361       .  S
C150        C746   1.512       .  S
C150        O156   1.268       .  A
C150        O158   1.261       .  A
O151        C159   1.261       .  A
O152        C159   1.258       .  A
C153        O160   1.265       .  A
C153        O154   1.259       .  A
C153        C166   1.516   1_655  S
C155        O157   1.260       .  A
C155        O161   1.269       .  A
C155        C189   1.521       .  S
C159        C263   1.469       .  S
In162       O164   2.266       .  S
In162       O165   2.285       .  S
In162       O173   2.302       .  S
In162       O167   2.344       .  S
In162       O169   2.348       .  S
In162       O170   2.282       .  S
In162       O171   2.277       .  S
In162       O174   2.311       .  S
C163        O169   1.268       .  A
C163        O171   1.258       .  A
O164        C172   1.259       .  A
O165        C172   1.261       .  A
C166        O173   1.261       .  A
C166        O167   1.266       .  A
C168        C334   1.511       .  S
C168        O170   1.261       .  A
C168        O174   1.267       .  A
C172       C1840   1.482       .  S
In175       O177   2.284       .  S
In175       O178   2.328       .  S
In175       O186   2.281       .  S
In175       O180   2.340       .  S
In175       O182   2.335       .  S
In175       O183   2.264       .  S
In175       O184   2.282       .  S
In175       O187   2.248       .  S
C176        O182   1.268       .  A
C176        O184   1.261       .  A
O177        C185   1.265       .  A
O178        C185   1.261       .  A
C179        O186   1.260       .  A
C179        O180   1.267       .  A
C179        C192   1.508       .  S
C181        O183   1.264       .  A
C181        O187   1.260       .  A
C181       C1779   1.471       .  S
In188       O190   2.249       .  S
In188       O191   2.248       .  S
In188       O199   2.279       .  S
In188       O193   2.342       .  S
In188       O195   2.365       .  S
In188       O196   2.321       .  S
In188       O197   2.298       .  S
In188       O200   2.259       .  S
C189        O195   1.269       .  A
C189        O197   1.259       .  A
O190        C198   1.262       .  A
O191        C198   1.262       .  A
C192        O199   1.259   1_565  A
C192        O193   1.268   1_565  A
C194        C710   1.504       .  S
C194        O196   1.259       .  A
C194        O200   1.265       .  A
C198        C220   1.467       .  S
In201       O203   2.248       .  S
In201       O204   2.247       .  S
In201       O212   2.275       .  S
In201       O206   2.328       .  S
In201       O208   2.363       .  S
In201       O209   2.307       .  S
In201       O210   2.286       .  S
In201       O213   2.266       .  S
C202        O208   1.267       .  A
C202        O210   1.258       .  A
C202        C280   1.514       .  S
O203        C211   1.262       .  A
O204        C211   1.260       .  A
C205        O212   1.258       .  A
C205        O206   1.264       .  A
C205        C218   1.499       .  S
C207        O209   1.257       .  A
C207        O213   1.266       .  A
C211       C1749   1.465       .  S
In214       O216   2.284       .  S
In214       O217   2.292       .  S
In214       O225   2.272       .  S
In214       O219   2.327       .  S
In214       O221   2.334       .  S
In214       O223   2.268       .  S
In214       O226   2.251       .  S
In214      O1790   2.262       .  S
C215        O221   1.269       .  A
C215        O223   1.260       .  A
C215        C254   1.504       .  S
O216        C224   1.266       .  A
O217        C224   1.260       .  A
C218        O225   1.258   1_565  A
C218        O219   1.266   1_565  A
C220        O222   1.261       .  A
C220       O1794   1.261       .  A
O222      In1782   2.253   1_554  S
C224        C755   1.501       .  S
O226       C1788   1.260       .  A
In227       O229   2.278       .  S
In227       O230   2.318       .  S
In227       O238   2.278       .  S
In227       O232   2.333       .  S
In227       O234   2.350       .  S
In227       O235   2.251       .  S
In227       O236   2.278       .  S
In227       O239   2.255       .  S
C228        O234   1.266       .  A
C228        O236   1.258       .  A
C228        C293   1.507       .  S
O229        C237   1.266       .  A
O230        C237   1.258       .  A
C231        O238   1.259       .  A
C231        O232   1.264       .  A
C231        C244   1.502   1_565  S
C233        O235   1.261       .  A
C233        O239   1.262       .  A
C233       C1701   1.468       .  S
C237        C490   1.506       .  S
In240       O242   2.255       .  S
In240       O243   2.241       .  S
In240       O251   2.272       .  S
In240       O245   2.340       .  S
In240       O247   2.352       .  S
In240       O248   2.284       .  S
In240       O249   2.268       .  S
In240       O252   2.283       .  S
C241        O247   1.269       .  A
C241        O249   1.258       .  A
C241        C267   1.505       .  S
O242        C250   1.264       .  A
O243        C250   1.260       .  A
C244        O251   1.256       .  A
C244        O245   1.266       .  A
C246        C358   1.497       .  S
C246        O248   1.256       .  A
C246        O252   1.266       .  A
C250       C1710   1.467       .  S
In253       O255   2.256       .  S
In253       O256   2.243       .  S
In253       O264   2.264       .  S
In253       O258   2.334       .  S
In253       O260   2.344       .  S
In253       O261   2.307       .  S
In253       O262   2.274       .  S
In253       O265   2.258       .  S
C254        O260   1.267       .  A
C254        O262   1.258       .  A
O255       C1831   1.263       .  A
O256       C1831   1.261       .  A
C257        O264   1.258       .  A
C257        O258   1.267       .  A
C257        C270   1.501   1_655  S
C259        C794   1.498       .  S
C259        O261   1.258       .  A
C259        O265   1.264       .  A
C263       O1823   1.259   1_554  A
C263       O1824   1.262   1_554  A
In266       O268   2.334       .  S
In266       O269   2.293       .  S
In266       O277   2.273       .  S
In266       O271   2.344       .  S
In266       O273   2.345       .  S
In266       O274   2.261       .  S
In266       O275   2.264       .  S
In266       O278   2.265       .  S
C267        O273   1.268       .  A
C267        O275   1.259       .  A
O268        C276   1.266       .  A
O269        C276   1.257       .  A
C270        O277   1.256       .  A
C270        O271   1.265       .  A
C272        O274   1.261       .  A
C272        O278   1.262       .  A
C272       C1740   1.475       .  S
C276        C382   1.515       .  S
In279       O281   2.330       .  S
In279       O282   2.302       .  S
In279       O290   2.289       .  S
In279       O284   2.348       .  S
In279       O286   2.358       .  S
In279       O287   2.267       .  S
In279       O288   2.277       .  S
In279       O291   2.252       .  S
C280        O286   1.270       .  A
C280        O288   1.259       .  A
O281        C289   1.267       .  A
O282        C289   1.260       .  A
C283        O290   1.258       .  A
C283        O284   1.267       .  A
C283        C296   1.512   1_655  S
C285        O287   1.263       .  A
C285        O291   1.260       .  A
C285       C1675   1.472       .  S
In292       O294   2.255       .  S
In292       O295   2.258       .  S
In292       O303   2.291       .  S
In292       O297   2.350       .  S
In292       O299   2.349       .  S
In292       O300   2.296       .  S
In292       O301   2.272       .  S
In292       O304   2.288       .  S
C293        O299   1.269       .  A
C293        O301   1.257       .  A
O294        C302   1.262       .  A
O295        C302   1.261       .  A
C296        O303   1.259       .  A
C296        O297   1.266       .  A
C298        C454   1.505       .  S
C298        O300   1.258       .  A
C298        O304   1.266       .  A
C302       C1684   1.471       .  S
C305        C306   1.537       .  S
C305        C311   1.537       .  S
C305        C309   1.575       .  S
C305       C1362   1.574       .  S
C306        H313   1.072       .  S
C306        C307   1.369       .  D
C307        C308   1.545       .  S
C307       C1330   1.498       .  S
C308        C312   1.533       .  S
C308        C310   1.531       .  S
C308        H314   1.109       .  S
C309        H315   1.083       .  S
C309        C310   1.380       .  D
C311        H316   1.087       .  S
C311        C312   1.358       .  D
C312       C1346   1.483       .  S
C317        C318   1.541       .  S
C317        C323   1.521       .  S
C317        C321   1.573       .  S
C317       C1365   1.573       .  S
C318        H325   1.071       .  S
C318        C319   1.377       .  D
C319        C320   1.548       .  S
C319       C1298   1.522       .  S
C320        C324   1.538       .  S
C320        C322   1.541       .  S
C320        H326   1.096       .  S
C321        H327   1.084       .  S
C321        C322   1.385       .  D
C322        C598   1.509       .  S
C323        H328   1.089       .  S
C323        C324   1.347       .  D
C324       C1317   1.471       .  S
C329        C330   1.541       .  S
C329        C335   1.543       .  S
C329        C333   1.561       .  S
C329       C1282   1.587       .  S
C330        H337   1.088       .  S
C330        C331   1.360       .  D
C331        C332   1.525       .  S
C331       C1349   1.483       .  S
C332        C336   1.558       .  S
C332        C334   1.552       .  S
C332        H338   1.102       .  S
C333        H339   1.075       .  S
C333        C334   1.383       .  D
C335        H340   1.087       .  S
C335        C336   1.377       .  D
C336       C1269   1.521       .  S
C341        C342   1.524       .  S
C341        C347   1.562       .  S
C341        C345   1.580       .  S
C341       C1285   1.582       .  S
C342        H349   1.087       .  S
C342        C343   1.344       .  D
C343        C344   1.524       .  S
C343       C1314   1.455       .  S
C344        C348   1.536       .  S
C344        C346   1.525       .  S
C344        H350   1.086       .  S
C345        H351   1.076       .  S
C345        C346   1.385       .  D
C346        C555   1.512       .  S
C347        H352   1.084       .  S
C347        C348   1.386       .  D
C348       C1250   1.526       .  S
C353        C354   1.529       .  S
C353        C359   1.558       .  S
C353        C357   1.563       .  S
C353       C1234   1.575       .  S
C354        H361   1.088       .  S
C354        C355   1.351       .  D
C355        C356   1.533       .  S
C355       C1218   1.471       .  S
C356        C360   1.539       .  S
C356        C358   1.529       .  S
C356        H362   1.093       .  S
C357        H363   1.079       .  S
C357        C358   1.378       .  D
C359        H364   1.079       .  S
C359        C360   1.385       .  D
C360       C1333   1.519       .  S
C365        C366   1.539       .  S
C365        C371   1.548       .  S
C365        C369   1.571       .  S
C365       C1237   1.572       .  S
C366        H373   1.088       .  S
C366        C367   1.354       .  D
C367        C368   1.531       .  S
C367       C1202   1.475       .  S
C368        C372   1.541       .  S
C368        C370   1.533       .  S
C368        H374   1.111       .  S
C369        H375   1.076       .  S
C369        C370   1.385       .  D
C370        C607   1.500       .  S
C371        H376   1.086       .  S
C371        C372   1.370       .  D
C372       C2869   1.500       .  S
C377        C378   1.550       .  S
C377        C383   1.534       .  S
C377        C381   1.559       .  S
C377       C1186   1.571       .  S
C378        H385   1.078       .  S
C378        C379   1.369       .  D
C379        C380   1.546       .  S
C379       C1266   1.507       .  S
C380        C384   1.529       .  S
C380        C382   1.552       .  S
C380        H386   1.111       .  S
C381        H387   1.079       .  S
C381        C382   1.383       .  D
C383        H388   1.088       .  S
C383        C384   1.350       .  D
C384       C1221   1.464       .  S
C389        C390   1.541       .  S
C389        C395   1.540       .  S
C389        C393   1.571       .  S
C389       C1189   1.569       .  S
C390        H397   1.085       .  S
C390        C391   1.371       .  D
C391        C392   1.545       .  S
C391       C2821   1.504       .  S
C392        C396   1.528       .  S
C392        C394   1.532       .  S
C392        H398   1.110       .  S
C393        H399   1.076       .  S
C393        C394   1.382       .  D
C394        C650   1.508       .  S
C395        H400   1.088       .  S
C395        C396   1.355       .  D
C396       C1205   1.465       .  S
C401        C402   1.530       .  S
C401        C407   1.535       .  S
C401        C405   1.578       .  S
C401       C1170   1.566       .  S
C402        H409   1.085       .  S
C402        C403   1.364       .  D
C403        C404   1.547       .  S
C403       C1138   1.498       .  S
C404        C408   1.531       .  S
C404        C406   1.529       .  S
C404        H410   1.108       .  S
C405        H411   1.080       .  S
C405        C406   1.390       .  D
C407        H412   1.087       .  S
C407        C408   1.354       .  D
C408       C1154   1.473       .  S
C413        C414   1.548       .  S
C413        C419   1.543       .  S
C413        C417   1.555       .  S
C413       C1173   1.572       .  S
C414        H421   1.077       .  S
C414        C415   1.362       .  D
C415        C416   1.551       .  S
C415       C1109   1.505       .  S
C416        C420   1.520       .  S
C416        C418   1.554       .  S
C416        H422   1.110       .  S
C417        H423   1.080       .  S
C417        C418   1.382       .  D
C418        C572   1.513       .  S
C419        H424   1.087       .  S
C419        C420   1.360       .  D
C420       C1122   1.468       .  S
C425        C426   1.539       .  S
C425        C431   1.537       .  S
C425        C429   1.574       .  S
C425       C1090   1.575       .  S
C426        H433   1.088       .  S
C426        C427   1.355       .  D
C427        C428   1.522       .  S
C427       C1125   1.466       .  S
C428        C432   1.539       .  S
C428        C430   1.540       .  S
C428        H434   1.110       .  S
C429        H435   1.075       .  S
C429        C430   1.388       .  D
C430        C529   1.505       .  S
C431        H436   1.087       .  S
C431        C432   1.366       .  D
C432       C1074   1.490       .  S
C437        C438   1.551       .  S
C437        C443   1.543       .  S
C437        C441   1.553       .  S
C437       C1093   1.581       .  S
C438        H445   1.087       .  S
C438        C439   1.373       .  D
C439        C440   1.516       .  S
C439       C1157   1.486       .  S
C440        C444   1.545       .  S
C440        C442   1.548       .  S
C440        H446   1.103       .  S
C441        H447   1.081       .  S
C441        C442   1.383       .  D
C443        H448   1.095       .  S
C443        C444   1.351       .  D
C444       C1058   1.499       .  S
C449        C450   1.528       .  S
C449        C455   1.557       .  S
C449        C453   1.572       .  S
C449       C1042   1.580       .  S
C450        H457   1.089       .  S
C450        C451   1.345       .  D
C451        C452   1.519       .  S
C451       C1029   1.454       .  S
C452        C456   1.541       .  S
C452        C454   1.527       .  S
C452        H458   1.087       .  S
C453        H459   1.072       .  S
C453        C454   1.377       .  D
C455        H460   1.084       .  S
C455        C456   1.390       .  D
C456       C1141   1.521       .  S
C461        C462   1.540       .  S
C461        C467   1.551       .  S
C461        C465   1.564       .  S
C461       C1045   1.583       .  S
C462        H469   1.084       .  S
C462        C463   1.361       .  D
C463        C464   1.527       .  S
C463       C1010   1.479       .  S
C464        C468   1.534       .  S
C464        C466   1.531       .  S
C464        H470   1.108       .  S
C465        H471   1.077       .  S
C465        C466   1.383       .  D
C466        C633   1.490       .  S
C467        H472   1.084       .  S
C467        C468   1.370       .  D
C468       C1106   1.503       .  S
C473        C474   1.525       .  S
C473        C479   1.545       .  S
C473        C477   1.563       .  S
C473        C994   1.568       .  S
C474        H481   1.074       .  S
C474        C475   1.356       .  D
C475        C476   1.554       .  S
C475       C1077   1.493       .  S
C476        C480   1.523       .  S
C476        C478   1.548       .  S
C476        H482   1.101       .  S
C477        H483   1.085       .  S
C477        C478   1.386       .  D
C478        C702   1.521       .  S
C479        H484   1.087       .  S
C479        C480   1.370       .  D
C480       C1013   1.488       .  S
C485        C486   1.536       .  S
C485        C491   1.531       .  S
C485        C489   1.577       .  S
C485        C997   1.578       .  S
C486        H493   1.082       .  S
C486        C487   1.372       .  D
C487        C488   1.531       .  S
C487       C1061   1.492       .  S
C488        C492   1.522       .  S
C488        C490   1.539       .  S
C488        H494   1.108       .  S
C489        H495   1.084       .  S
C489        C490   1.398       .  D
C491        H496   1.087       .  S
C491        C492   1.352       .  D
C492       C1026   1.467       .  S
In497       O499   2.299       .  S
In497       O500   2.283       .  S
In497       O508   2.281       .  S
In497       O502   2.321       .  S
In497       O504   2.331       .  S
In497       O505   2.267       .  S
In497       O506   2.268       .  S
In497       O509   2.258       .  S
C498        O504   1.268       .  A
C498        O506   1.260       .  A
C498        C576   1.502       .  S
O499        C507   1.268       .  A
O500        C507   1.262       .  A
C501        O508   1.259       .  A
C501        O502   1.263       .  A
C501        C514   1.499       .  S
C503        O505   1.261       .  A
C503        O509   1.258       .  A
C503        C676   1.471       .  S
C507        C734   1.507       .  S
In510       O512   2.256       .  S
In510       O513   2.259       .  S
In510       O521   2.283       .  S
In510       O515   2.323       .  S
In510       O517   2.341       .  S
In510       O518   2.295       .  S
In510       O519   2.272       .  S
In510       O522   2.265       .  S
C511        O517   1.268       .  A
C511        O519   1.258       .  A
C511        C537   1.505       .  S
O512        C520   1.260       .  A
O513        C520   1.260       .  A
C514        O521   1.258       .  A
C514        O515   1.264       .  A
C516        O518   1.260       .  A
C516        O522   1.266       .  A
C520        C659   1.468       .  S
In523       O525   2.259       .  S
In523       O526   2.282       .  S
In523       O534   2.286       .  S
In523       O528   2.321       .  S
In523       O530   2.341       .  S
In523       O531   2.303       .  S
In523       O532   2.279       .  S
In523       O535   2.284       .  S
C524        O530   1.265       .  A
C524        O532   1.260       .  A
C524        C563   1.506       .  S
O525        C533   1.260       .  A
O526        C533   1.261       .  A
C527        O534   1.260       .  A
C527        O528   1.262       .  A
C527        C540   1.500       .  S
C529        O531   1.261       .  A
C529        O535   1.265       .  A
C533        C698   1.478       .  S
In536       O538   2.279       .  S
In536       O539   2.282       .  S
In536       O547   2.279       .  S
In536       O541   2.325       .  S
In536       O543   2.344       .  S
In536       O544   2.265       .  S
In536       O545   2.274       .  S
In536       O548   2.255       .  S
C537        O543   1.268       .  A
C537        O545   1.258       .  A
O538        C546   1.266       .  A
O539        C546   1.260       .  A
C540        O547   1.257       .  A
C540        O541   1.265       .  A
C542        O544   1.261       .  A
C542        O548   1.261       .  A
C542        C689   1.471       .  S
In549       O551   2.250       .  S
In549       O552   2.256       .  S
In549       O560   2.280       .  S
In549       O554   2.340       .  S
In549       O556   2.360       .  S
In549       O557   2.319       .  S
In549       O558   2.283       .  S
In549       O561   2.285       .  S
C550        O556   1.269       .  A
C550        O558   1.258       .  A
C550        C589   1.515       .  S
O551        C559   1.261       .  A
O552        C559   1.261       .  A
C553        O560   1.259       .  A
C553        O554   1.266       .  A
C553        C566   1.506       .  S
C555        O557   1.258       .  A
C555        O561   1.267       .  A
C559        C646   1.468       .  S
In562       O564   2.315       .  S
In562       O565   2.293       .  S
In562       O573   2.274       .  S
In562       O567   2.337       .  S
In562       O569   2.338       .  S
In562       O570   2.257       .  S
In562       O571   2.270       .  S
In562       O574   2.257       .  S
C563        O569   1.270       .  A
C563        O571   1.259       .  A
O564        C572   1.267       .  A
O565        C572   1.261       .  A
C566        O573   1.259       .  A
C566        O567   1.268       .  A
C568        O570   1.264       .  A
C568        O574   1.260       .  A
C568        C637   1.471       .  S
In575       O577   2.258       .  S
In575       O578   2.254       .  S
In575       O586   2.273       .  S
In575       O580   2.336       .  S
In575       O582   2.335       .  S
In575       O583   2.290       .  S
In575       O584   2.270       .  S
In575       O587   2.295       .  S
C576        O582   1.268       .  A
C576        O584   1.258       .  A
O577        C585   1.262       .  A
O578        C585   1.261       .  A
C579        O586   1.258       .  A
C579        O580   1.266       .  A
C579        C592   1.503       .  S
C581        C722   1.504       .  S
C581        O583   1.258       .  A
C581        O587   1.264       .  A
C585        C620   1.469       .  S
In588       O590   2.296       .  S
In588       O591   2.310       .  S
In588       O599   2.271       .  S
In588       O593   2.334       .  S
In588       O595   2.361       .  S
In588       O596   2.254       .  S
In588       O597   2.283       .  S
In588       O600   2.245       .  S
C589        O595   1.269       .  A
C589        O597   1.259       .  A
O590        C598   1.265       .  A
O591        C598   1.260       .  A
C592        O599   1.258       .  A
C592        O593   1.268       .  A
C594        O596   1.264       .  A
C594        O600   1.262       .  A
C594        C611   1.469       .  S
In601       O603   2.254       .  S
In601       O604   2.254       .  S
In601       O612   2.277       .  S
In601       O606   2.327       .  S
In601       O608   2.342       .  S
In601       O609   2.300       .  S
In601       O610   2.274       .  S
In601       O613   2.272       .  S
C602        O608   1.267       .  A
C602        O610   1.258       .  A
C602        C641   1.505       .  S
O603        C611   1.262       .  A
O604        C611   1.261       .  A
C605        O612   1.259       .  A
C605        O606   1.265       .  A
C605        C618   1.500       .  S
C607        O609   1.259       .  A
C607        O613   1.265       .  A
In614       O616   2.287       .  S
In614       O617   2.309       .  S
In614       O625   2.276       .  S
In614       O619   2.327       .  S
In614       O621   2.341       .  S
In614       O622   2.255       .  S
In614       O623   2.267       .  S
In614       O626   2.254       .  S
C615        O621   1.268       .  A
C615        O623   1.259       .  A
C615        C667   1.504       .  S
O616        C624   1.266       .  A
O617        C624   1.258       .  A
C618        O625   1.258       .  A
C618        O619   1.265       .  A
C620        O622   1.261       .  A
C620        O626   1.260       .  A
C624        C770   1.507       .  S
In627       O629   2.264       .  S
In627       O630   2.243       .  S
In627       O638   2.268       .  S
In627       O632   2.346       .  S
In627       O634   2.349       .  S
In627       O635   2.279       .  S
In627       O636   2.288       .  S
In627       O639   2.277       .  S
C628        O634   1.267       .  A
C628        O636   1.259       .  A
C628        C693   1.512       .  S
O629        C637   1.265       .  A
O630        C637   1.259       .  A
C631        O638   1.256       .  A
C631        O632   1.266       .  A
C631        C644   1.501       .  S
C633        O635   1.255       .  A
C633        O639   1.264       .  A
In640       O642   2.288       .  S
In640       O643   2.311       .  S
In640       O651   2.266       .  S
In640       O645   2.337       .  S
In640       O647   2.341       .  S
In640       O648   2.255       .  S
In640       O649   2.278       .  S
In640       O652   2.247       .  S
C641        O647   1.266       .  A
C641        O649   1.258       .  A
O642        C650   1.264       .  A
O643        C650   1.258       .  A
C644        O651   1.258       .  A
C644        O645   1.267       .  A
C646        O648   1.263       .  A
C646        O652   1.262       .  A
In653       O655   2.268       .  S
In653       O656   2.312       .  S
In653       O664   2.255       .  S
In653       O658   2.314       .  S
In653       O660   2.338       .  S
In653       O661   2.257       .  S
In653       O662   2.285       .  S
In653       O665   2.250       .  S
C654        O660   1.266       .  A
C654        O662   1.261       .  A
C654        C680   1.509       .  S
O655        C663   1.265       .  A
O656        C663   1.260       .  A
C657        O664   1.258       .  A
C657        O658   1.265       .  A
C657        C670   1.489       .  S
C659        O661   1.262       .  A
C659        O665   1.260       .  A
In666       O668   2.256       .  S
In666       O669   2.255       .  S
In666       O677   2.252       .  S
In666       O671   2.318       .  S
In666       O673   2.347       .  S
In666       O674   2.279       .  S
In666       O675   2.267       .  S
In666       O678   2.295       .  S
C667        O673   1.268       .  A
C667        O675   1.257       .  A
O668        C676   1.263       .  A
O669        C676   1.262       .  A
C670        O677   1.257       .  A
C670        O671   1.266       .  A
C672        C782   1.498       .  S
C672        O674   1.258       .  A
C672        O678   1.264       .  A
In679       O681   2.246       .  S
In679       O682   2.262       .  S
In679       O690   2.278       .  S
In679       O684   2.336       .  S
In679       O686   2.340       .  S
In679       O687   2.288       .  S
In679       O688   2.279       .  S
In679       O691   2.282       .  S
C680        O686   1.270       .  A
C680        O688   1.259       .  A
O681        C689   1.261       .  A
O682        C689   1.264       .  A
C683        O690   1.260       .  A
C683        O684   1.269       .  A
C683        C696   1.509       .  S
C685        O687   1.261       .  A
C685        O691   1.265       .  A
In692       O694   2.317       .  S
In692       O695   2.318       .  S
In692       O703   2.287       .  S
In692       O697   2.340       .  S
In692       O699   2.343       .  S
In692       O700   2.281       .  S
In692       O701   2.284       .  S
In692       O704   2.253       .  S
C693        O699   1.269       .  A
C693        O701   1.260       .  A
O694        C702   1.266       .  A
O695        C702   1.261       .  A
C696        O703   1.260       .  A
C696        O697   1.266       .  A
C698        O700   1.264       .  A
C698        O704   1.260       .  A
C705        C706   1.532       .  S
C705        C711   1.526       .  S
C705        C709   1.581       .  S
C705        C978   1.558       .  S
C706        H713   1.086       .  S
C706        C707   1.353       .  D
C707        C708   1.525       .  S
C707        C962   1.463       .  S
C708        C712   1.535       .  S
C708        C710   1.530       .  S
C708        H714   1.110       .  S
C709        H715   1.084       .  S
C709        C710   1.399       .  D
C711        H716   1.086       .  S
C711        C712   1.360       .  D
C712        C949   1.489       .  S
C717        C718   1.547       .  S
C717        C723   1.533       .  S
C717        C721   1.554       .  S
C717        C981   1.560       .  S
C718        H725   1.087       .  S
C718        C719   1.355       .  D
C719        C720   1.526       .  S
C719        C930   1.472       .  S
C720        C724   1.554       .  S
C720        C722   1.548       .  S
C720        H726   1.111       .  S
C721        H727   1.085       .  S
C721        C722   1.386       .  D
C723        H728   1.072       .  S
C723        C724   1.363       .  D
C724        C917   1.507       .  S
C729        C730   1.537       .  S
C729        C735   1.545       .  S
C729        C733   1.553       .  S
C729        C898   1.566       .  S
C730        H737   1.078       .  S
C730        C731   1.370       .  D
C731        C732   1.547       .  S
C731        C885   1.499       .  S
C732        C736   1.531       .  S
C732        C734   1.546       .  S
C732        H738   1.110       .  S
C733        H739   1.085       .  S
C733        C734   1.381       .  D
C735        H740   1.087       .  S
C735        C736   1.366       .  D
C736        C933   1.480       .  S
C741        C742   1.540       .  S
C741        C747   1.528       .  S
C741        C745   1.579       .  S
C741        C901   1.565       .  S
C742        H749   1.085       .  S
C742        C743   1.374       .  D
C743        C744   1.542       .  S
C743        C866   1.506       .  S
C744        C748   1.522       .  S
C744        C746   1.528       .  S
C744        H750   1.107       .  S
C745        H751   1.084       .  S
C745        C746   1.394       .  D
C747        H752   1.088       .  S
C747        C748   1.352       .  D
C748        C965   1.458       .  S
C753        C754   1.564       .  S
C753        C759   1.558       .  S
C753        C757   1.530       .  S
C753        C850   1.573       .  S
C754        H761   1.077       .  S
C754        C755   1.377       .  D
C755        C756   1.530       .  S
C756        C760   1.543       .  S
C756        C758   1.522       .  S
C756        H762   1.092       .  S
C757        H763   1.088       .  S
C757        C758   1.348       .  D
C758        C834   1.462       .  S
C759        H764   1.080       .  S
C759        C760   1.388       .  D
C760        C946   1.519       .  S
C765        C766   1.555       .  S
C765        C771   1.531       .  S
C765        C769   1.577       .  S
C765        C853   1.573       .  S
C766        H773   1.086       .  S
C766        C767   1.368       .  D
C767        C768   1.528       .  S
C767       C2482   1.491       .  S
C768        C772   1.529       .  S
C768        C770   1.533       .  S
C768        H774   1.111       .  S
C769        H775   1.078       .  S
C769        C770   1.391       .  D
C771        H776   1.087       .  S
C771        C772   1.343       .  D
C772        C821   1.463       .  S
C777        C778   1.532       .  S
C777        C783   1.546       .  S
C777        C781   1.558       .  S
C777        C805   1.561       .  S
C778        H785   1.088       .  S
C778        C779   1.350       .  D
C779        C780   1.545       .  S
C779        C818   1.483       .  S
C780        C784   1.550       .  S
C780        C782   1.542       .  S
C780        H786   1.111       .  S
C781        H787   1.080       .  S
C781        C782   1.381       .  D
C783        H788   1.080       .  S
C783        C784   1.364       .  D
C784       C2450   1.494       .  S
C789        C790   1.531       .  S
C789        C795   1.540       .  S
C789        C793   1.573       .  S
C789        C802   1.564       .  S
C790        H797   1.088       .  S
C790        C791   1.345       .  D
C791        C792   1.535       .  S
C791        C837   1.474       .  S
C792        C796   1.547       .  S
C792        C794   1.529       .  S
C792        H798   1.091       .  S
C793        H799   1.076       .  S
C793        C794   1.385       .  D
C795        H800   1.085       .  S
C795        C796   1.375       .  D
C796        C869   1.521       .  S
C801        C802   1.418       .  A
C801        C806   1.408       .  A
C801        H808   1.082       .  S
C802        C803   1.421       .  A
C803        C810   1.512       .  S
C803        C804   1.422       .  A
C804        C805   1.420       .  A
C804        H809   1.074       .  S
C805        C806   1.428       .  A
C806        C807   1.529       .  S
C807        F811   1.385       .  S
C807        F812   1.379       .  S
C807        F813   1.379       .  S
C810        F814   1.383       .  S
C810        F815   1.382       .  S
C810        F816   1.385       .  S
C817        C818   1.404       .  A
C817        C822   1.402       .  A
C817        H824   1.081       .  S
C818        C819   1.412       .  A
C819        C826   1.498       .  S
C819        C820   1.390       .  A
C820        C821   1.390       .  A
C820        H825   1.085       .  S
C821        C822   1.419       .  A
C822        C823   1.521       .  S
C823        F827   1.385       .  S
C823        F828   1.383       .  S
C823        F829   1.382       .  S
C826        F830   1.380       .  S
C826        F831   1.372       .  S
C826        F832   1.386       .  S
C833        C834   1.394       .  A
C833        C838   1.396       .  A
C833        H840   1.084       .  S
C834        C835   1.408       .  A
C835        C842   1.515       .  S
C835        C836   1.406       .  A
C836        C837   1.404       .  A
C836        H841   1.084       .  S
C837        C838   1.415       .  A
C838        C839   1.511       .  S
C839        F843   1.385       .  S
C839        F844   1.383       .  S
C839        F845   1.370       .  S
C842        F846   1.382       .  S
C842        F847   1.383       .  S
C842        F848   1.379       .  S
C849        C850   1.424       .  A
C849        C854   1.426       .  A
C849        H856   1.075       .  S
C850        C851   1.436       .  A
C851        C858   1.532       .  S
C851        C852   1.414       .  A
C852        C853   1.417       .  A
C852        H857   1.077       .  S
C853        C854   1.421       .  A
C854        C855   1.513       .  S
C855        F859   1.385       .  S
C855        F860   1.382       .  S
C855        F861   1.384       .  S
C858        F862   1.385       .  S
C858        F863   1.381       .  S
C858        F864   1.379       .  S
C865        C866   1.404       .  A
C865        C870   1.408       .  A
C865        H872   1.074       .  S
C866        C867   1.412       .  A
C867        C874   1.515       .  S
C867        C868   1.406       .  A
C868        C869   1.416       .  A
C868        H873   1.083       .  S
C869        C870   1.431       .  A
C870        C871   1.520       .  S
C871        F875   1.385       .  S
C871        F876   1.378       .  S
C871        F877   1.383       .  S
C874        F878   1.383       .  S
C874        F879   1.383       .  S
C874        F880   1.384       .  S
C881        C882   1.408   1_554  A
C881        C886   1.418       .  A
C881        H888   1.084   1_554  S
C882       C2352   1.497       .  S
C882        C883   1.430   1_556  A
C883        C890   1.529       .  S
C883        C884   1.398       .  A
C884        C885   1.402       .  A
C884        H889   1.085       .  S
C885        C886   1.418       .  A
C886        C887   1.516       .  S
C887        F891   1.383       .  S
C887        F892   1.382       .  S
C887        F893   1.385       .  S
C890        F896   1.382       .  S
C890       F2462   1.383       .  S
C890       F2463   1.372   1_554  S
F894       C2458   1.385       .  S
F895       C2458   1.381       .  S
C897        C898   1.401       .  A
C897        C902   1.413       .  A
C897        H904   1.085       .  S
C898        C899   1.427       .  A
C899        C906   1.515       .  S
C899        C900   1.423       .  A
C900        C901   1.411       .  A
C900        H905   1.082       .  S
C901        C902   1.447       .  A
C902        C903   1.527       .  S
C903        F907   1.371       .  S
C903        F908   1.384       .  S
C903        F909   1.384       .  S
C906        F910   1.385       .  S
C906        F911   1.384       .  S
C906        F912   1.382       .  S
C913        C914   1.398   1_554  A
C913        C918   1.399       .  A
C913        H920   1.083   1_554  S
C914       C2335   1.501       .  S
C914        C915   1.419   1_556  A
C915        C922   1.517       .  S
C915        C916   1.421       .  A
C916        C917   1.411       .  A
C916        H921   1.084       .  S
C917        C918   1.431       .  A
C918        C919   1.526       .  S
C919        F923   1.381       .  S
C919        F924   1.378       .  S
C919        F925   1.384       .  S
C922        F928   1.383   1_554  S
C922       F2494   1.382   1_554  S
C922       F2495   1.385       .  S
F926       C2490   1.384       .  S
F927       C2490   1.383       .  S
C929        C930   1.397       .  A
C929        C934   1.404       .  A
C929        H936   1.084       .  S
C930        C931   1.422       .  A
C931        C938   1.520       .  S
C931        C932   1.398       .  A
C932        C933   1.397       .  A
C932        H937   1.086       .  S
C933        C934   1.416       .  A
C934        C935   1.507       .  S
C935        F939   1.382       .  S
C935        F940   1.378       .  S
C935        F941   1.378       .  S
C938        F942   1.384       .  S
C938        F943   1.377       .  S
C938        F944   1.383       .  S
C945        C946   1.410       .  A
C945        C950   1.405       .  A
C945        H952   1.082       .  S
C946        C947   1.427       .  A
C947        C954   1.516       .  S
C947        C948   1.405       .  A
C948        C949   1.399       .  A
C948        H953   1.083       .  S
C949        C950   1.414       .  A
C950        C951   1.515       .  S
C951        F955   1.384       .  S
C951        F956   1.385       .  S
C951        F957   1.382       .  S
C954        F958   1.384       .  S
C954        F959   1.383       .  S
C954        F960   1.386       .  S
C961        C962   1.393       .  A
C961        C966   1.395       .  A
C961        H968   1.086       .  S
C962        C963   1.418       .  A
C963        C970   1.517       .  S
C963        C964   1.398       .  A
C964        C965   1.397       .  A
C964        H969   1.084       .  S
C965        C966   1.412       .  A
C966        C967   1.508       .  S
C967        F971   1.372       .  S
C967        F972   1.382       .  S
C967        F973   1.380       .  S
C970        F974   1.382       .  S
C970        F975   1.368       .  S
C970        F976   1.385       .  S
C977        C978   1.410       .  A
C977        C982   1.420       .  A
C977        H984   1.082       .  S
C978        C979   1.451       .  A
C979        C986   1.533       .  S
C979        C980   1.411       .  A
C980        C981   1.399       .  A
C980        H985   1.085       .  S
C981        C982   1.424       .  A
C982        C983   1.513       .  S
C983        F987   1.384       .  S
C983        F988   1.384       .  S
C983        F989   1.382       .  S
C986        F990   1.383       .  S
C986        F991   1.374       .  S
C986        F992   1.386       .  S
C993        C994   1.393       .  A
C993        C998   1.410       .  A
C993       H1000   1.082       .  S
C994        C995   1.433       .  A
C995       C1002   1.515       .  S
C995        C996   1.426       .  A
C996        C997   1.411       .  A
C996       H1001   1.081       .  S
C997        C998   1.455       .  A
C998        C999   1.530       .  S
C999       F1003   1.376       .  S
C999       F1004   1.376       .  S
C999       F1005   1.386       .  S
C1002      F1006   1.384       .  S
C1002      F1007   1.383       .  S
C1002      F1008   1.385       .  S
C1009      C1010   1.403       .  A
C1009      C1014   1.405       .  A
C1009      H1016   1.083       .  S
C1010      C1011   1.419       .  A
C1011      C1018   1.521       .  S
C1011      C1012   1.397       .  A
C1012      C1013   1.404       .  A
C1012      H1017   1.084       .  S
C1013      C1014   1.419       .  A
C1014      C1015   1.520       .  S
C1015      F1019   1.384       .  S
C1015      F1020   1.375       .  S
C1015      F1021   1.381       .  S
C1018      F1022   1.380       .  S
C1018      F1023   1.382       .  S
C1018      F1024   1.386       .  S
C1025      C1026   1.405       .  A
C1025      C1030   1.405       .  A
C1025      H1032   1.083       .  S
C1026      C1027   1.416       .  A
C1027      C1034   1.513       .  S
C1027      C1028   1.390       .  A
C1028      C1029   1.390       .  A
C1028      H1033   1.084       .  S
C1029      C1030   1.410       .  A
C1030      C1031   1.518       .  S
C1031      F1035   1.384       .  S
C1031      F1036   1.381       .  S
C1031      F1037   1.383       .  S
C1034      F1038   1.385       .  S
C1034      F1039   1.371       .  S
C1034      F1040   1.381       .  S
C1041      C1042   1.420       .  A
C1041      C1046   1.425       .  A
C1041      H1048   1.081       .  S
C1042      C1043   1.428       .  A
C1043      C1050   1.517       .  S
C1043      C1044   1.418       .  A
C1044      C1045   1.420       .  A
C1044      H1049   1.074       .  S
C1045      C1046   1.434       .  A
C1046      C1047   1.522       .  S
C1047      F1051   1.385       .  S
C1047      F1052   1.381       .  S
C1047      F1053   1.380       .  S
C1050      F1054   1.383       .  S
C1050      F1055   1.386       .  S
C1050      F1056   1.383       .  S
C1057      C1058   1.411       .  A
C1057      C1062   1.419       .  A
C1057      H1064   1.083       .  S
C1058      C1059   1.435       .  A
C1059      C1066   1.532       .  S
C1059      C1060   1.390       .  A
C1060      C1061   1.388       .  A
C1060      H1065   1.070       .  S
C1061      C1062   1.414       .  A
C1062      C1063   1.514       .  S
C1063      F1067   1.381       .  S
C1063      F1068   1.384       .  S
C1063      F1069   1.382       .  S
C1066      F1070   1.379       .  S
C1066      F1071   1.369       .  S
C1066      F1072   1.383       .  S
C1073      C1074   1.398       .  A
C1073      C1078   1.398       .  A
C1073      H1080   1.083       .  S
C1074      C1075   1.412       .  A
C1075      C1082   1.515       .  S
C1075      C1076   1.418       .  A
C1076      C2645   1.410       .  A
C1076      H1081   1.083       .  S
C1077      C2644   1.406       .  A
C1077      C2646   1.434       .  A
C1078      C2647   1.527       .  S
C1078      C2645   1.429       .  A
C1079      C2646   1.534       .  S
C1079      F1084   1.378       .  S
C1079      F1085   1.385       .  S
C1079      F2651   1.375       .  S
C1082      F1086   1.384       .  S
C1082      F1087   1.383       .  S
C1082      F1088   1.384       .  S
F1083      C2647   1.385       .  S
C1089      C1090   1.422       .  A
C1089      C1094   1.417       .  A
C1089      H1096   1.084       .  S
C1090      C1091   1.423       .  A
C1091      C1098   1.515       .  S
C1091      C1092   1.421       .  A
C1092      C1093   1.422       .  A
C1092      H1097   1.097       .  S
C1093      C1094   1.426       .  A
C1094      C1095   1.524       .  S
C1095      F1099   1.381       .  S
C1095      F1100   1.379       .  S
C1095      F1101   1.385       .  S
C1098      F1102   1.383       .  S
C1098      F1103   1.382       .  S
C1098      F1104   1.386       .  S
C1105      C1110   1.400       .  A
C1105      C2674   1.397   1_554  A
C1105      H1112   1.083   1_554  S
C1106      C2673   1.397       .  A
C1106      C2675   1.417       .  A
C1107      C2682   1.515   1_554  S
C1107      C1108   1.420       .  A
C1107      C2674   1.414   1_554  A
C1108      C1109   1.411       .  A
C1108      H1113   1.083       .  S
C1109      C1110   1.435       .  A
C1110      C1111   1.529       .  S
C1111      F1115   1.386       .  S
C1111      F1116   1.372       .  S
C1111      F1117   1.382       .  S
C1114      C2675   1.516       .  S
C1114      F1118   1.384       .  S
C1114      F1119   1.384       .  S
C1114      F2688   1.381       .  S
F1120      C2682   1.384       .  S
C1121      C1122   1.399       .  A
C1121      C1126   1.396       .  A
C1121      H1128   1.083       .  S
C1122      C1123   1.413       .  A
C1123      C1130   1.513       .  S
C1123      C1124   1.402       .  A
C1124      C1125   1.398       .  A
C1124      H1129   1.079       .  S
C1125      C1126   1.413       .  A
C1126      C1127   1.516       .  S
C1127      F1131   1.385       .  S
C1127      F1132   1.381       .  S
C1127      F1133   1.375       .  S
C1130      F1134   1.376       .  S
C1130      F1135   1.381       .  S
C1130      F1136   1.382       .  S
C1137      C1138   1.399       .  A
C1137      C1142   1.403       .  A
C1137      H1144   1.079       .  S
C1138      C1139   1.420       .  A
C1139      C1146   1.516       .  S
C1139      C1140   1.408       .  A
C1140      C1141   1.409       .  A
C1140      H1145   1.083       .  S
C1141      C1142   1.430       .  A
C1142      C1143   1.518       .  S
C1143      F1147   1.386       .  S
C1143      F1148   1.384       .  S
C1143      F1149   1.384       .  S
C1146      F1150   1.384       .  S
C1146      F1151   1.382       .  S
C1146      F1152   1.383       .  S
C1153      C1154   1.397       .  A
C1153      C1158   1.406       .  A
C1153      H1160   1.081       .  S
C1154      C1155   1.418       .  A
C1155      C1162   1.522       .  S
C1155      C1156   1.396       .  A
C1156      C1157   1.400       .  A
C1156      H1161   1.082       .  S
C1157      C1158   1.424       .  A
C1158      C1159   1.516       .  S
C1159      F1163   1.380       .  S
C1159      F1164   1.372       .  S
C1159      F1165   1.385       .  S
C1162      F1166   1.377       .  S
C1162      F1167   1.380       .  S
C1162      F1168   1.385       .  S
C1169      C1170   1.417       .  A
C1169      C1174   1.415       .  A
C1169      H1176   1.082       .  S
C1170      C1171   1.419       .  A
C1171      C1178   1.515       .  S
C1171      C1172   1.420       .  A
C1172      C1173   1.424       .  A
C1172      H1177   1.073       .  S
C1173      C1174   1.431       .  A
C1174      C1175   1.527       .  S
C1175      F1179   1.385       .  S
C1175      F1180   1.379       .  S
C1175      F1181   1.381       .  S
C1178      F1182   1.382       .  S
C1178      F1183   1.382       .  S
C1178      F1184   1.385       .  S
C1185      C1186   1.422       .  A
C1185      C1190   1.419       .  A
C1185      H1192   1.073       .  S
C1186      C1187   1.432       .  A
C1187      C1194   1.523       .  S
C1187      C1188   1.417       .  A
C1188      C1189   1.416       .  A
C1188      H1193   1.082       .  S
C1189      C1190   1.421       .  A
C1190      C1191   1.514       .  S
C1191      F1195   1.385       .  S
C1191      F1196   1.383       .  S
C1191      F1197   1.383       .  S
C1194      F1198   1.382       .  S
C1194      F1199   1.381       .  S
C1194      F1200   1.385       .  S
C1201      C1202   1.403       .  A
C1201      C1206   1.405       .  A
C1201      H1208   1.085       .  S
C1202      C1203   1.414       .  A
C1203      C1210   1.513       .  S
C1203      C1204   1.396       .  A
C1204      C1205   1.396       .  A
C1204      H1209   1.083       .  S
C1205      C1206   1.417       .  A
C1206      C1207   1.519       .  S
C1207      F1211   1.382       .  S
C1207      F1212   1.382       .  S
C1207      F1213   1.380       .  S
C1210      F1214   1.383       .  S
C1210      F1215   1.370       .  S
C1210      F1216   1.385       .  S
C1217      C1218   1.403       .  A
C1217      C1222   1.404       .  A
C1217      H1224   1.084       .  S
C1218      C1219   1.410       .  A
C1219      C1226   1.506       .  S
C1219      C1220   1.393       .  A
C1220      C1221   1.393       .  A
C1220      H1225   1.083       .  S
C1221      C1222   1.414       .  A
C1222      C1223   1.514       .  S
C1223      F1227   1.379       .  S
C1223      F1228   1.385       .  S
C1223      F1229   1.382       .  S
C1226      F1230   1.384       .  S
C1226      F1231   1.382       .  S
C1226      F1232   1.373       .  S
C1233      C1234   1.421       .  A
C1233      C1238   1.425       .  A
C1233      H1240   1.075       .  S
C1234      C1235   1.431       .  A
C1235      C1242   1.521       .  S
C1235      C1236   1.414       .  A
C1236      C1237   1.414       .  A
C1236      H1241   1.082       .  S
C1237      C1238   1.424       .  A
C1238      C1239   1.511       .  S
C1239      F1243   1.385       .  S
C1239      F1244   1.383       .  S
C1239      F1245   1.382       .  S
C1242      F1246   1.379       .  S
C1242      F1247   1.385       .  S
C1242      F1248   1.382       .  S
C1249      C1250   1.413       .  A
C1249      C1254   1.410       .  A
C1249      H1256   1.083       .  S
C1250      C1251   1.438       .  A
C1251      C1258   1.521       .  S
C1251      C1252   1.407       .  A
C1252      C1253   1.398   1_554  A
C1252      H1257   1.079   1_554  S
C1253      C1959   1.501       .  S
C1253      C1254   1.415   1_556  A
C1254      C1255   1.515   1_554  S
C1255      F1259   1.382   1_556  S
C1255      F2828   1.383       .  S
C1255      F2829   1.384   1_556  S
C1258      F1262   1.380       .  S
C1258      F1263   1.384       .  S
C1258      F1264   1.386       .  S
F1260      C2823   1.382       .  S
F1261      C2823   1.384       .  S
C1265      C1266   1.410       .  A
C1265      C1270   1.422       .  A
C1265      H1272   1.083       .  S
C1266      C1267   1.427       .  A
C1267      C1274   1.530       .  S
C1267      C1268   1.401       .  A
C1268      C1269   1.408       .  A
C1268      H1273   1.078       .  S
C1269      C1270   1.424       .  A
C1270      C1271   1.518       .  S
C1271      F1275   1.377       .  S
C1271      F1276   1.382       .  S
C1271      F1277   1.385       .  S
C1274      F1278   1.377       .  S
C1274      F1279   1.381       .  S
C1274      F1280   1.385       .  S
C1281      C1282   1.420       .  A
C1281      C1286   1.421       .  A
C1281      H1288   1.077       .  S
C1282      C1283   1.429       .  A
C1283      C1290   1.515       .  S
C1283      C1284   1.427       .  A
C1284      C1285   1.423       .  A
C1284      H1289   1.079       .  S
C1285      C1286   1.427       .  A
C1286      C1287   1.515       .  S
C1287      F1291   1.383       .  S
C1287      F1292   1.385       .  S
C1287      F1293   1.382       .  S
C1290      F1294   1.383       .  S
C1290      F1295   1.382       .  S
C1290      F1296   1.385       .  S
C1297      C1298   1.413       .  A
C1297      C1302   1.408       .  A
C1297      H1304   1.084       .  S
C1298      C1299   1.433       .  A
C1299      C1306   1.518       .  S
C1299      C1300   1.409       .  A
C1300      C1301   1.399   1_554  A
C1300      H1305   1.078   1_554  S
C1301      C1940   1.499       .  S
C1301      C1302   1.416   1_556  A
C1302      C1303   1.516   1_554  S
C1303      F1307   1.383       .  S
C1303      F2876   1.384   1_556  S
C1303      F2877   1.383       .  S
C1306      F1310   1.371       .  S
C1306      F1311   1.385       .  S
C1306      F1312   1.381       .  S
F1308      C2871   1.383       .  S
F1309      C2871   1.382       .  S
C1313      C1314   1.391       .  A
C1313      C1318   1.391       .  A
C1313      H1320   1.084       .  S
C1314      C1315   1.412       .  A
C1315      C1322   1.519       .  S
C1315      C1316   1.399       .  A
C1316      C1317   1.404       .  A
C1316      H1321   1.084       .  S
C1317      C1318   1.412       .  A
C1318      C1319   1.504       .  S
C1319      F1323   1.383       .  S
C1319      F1324   1.375       .  S
C1319      F1325   1.382       .  S
C1322      F1326   1.383       .  S
C1322      F1327   1.382       .  S
C1322      F1328   1.384       .  S
C1329      C1330   1.398       .  A
C1329      C1334   1.407       .  A
C1329      H1336   1.076       .  S
C1330      C1331   1.415       .  A
C1331      C1338   1.516       .  S
C1331      C1332   1.406       .  A
C1332      C1333   1.412       .  A
C1332      H1337   1.084       .  S
C1333      C1334   1.435       .  A
C1334      C1335   1.521       .  S
C1335      F1339   1.386       .  S
C1335      F1340   1.374       .  S
C1335      F1341   1.383       .  S
C1338      F1342   1.383       .  S
C1338      F1343   1.383       .  S
C1338      F1344   1.384       .  S
C1345      C1346   1.402       .  A
C1345      C1350   1.409       .  A
C1345      H1352   1.081       .  S
C1346      C1347   1.419       .  A
C1347      C1354   1.517       .  S
C1347      C1348   1.402       .  A
C1348      C1349   1.399       .  A
C1348      H1353   1.084       .  S
C1349      C1350   1.414       .  A
C1350      C1351   1.511       .  S
C1351      F1355   1.382       .  S
C1351      F1356   1.379       .  S
C1351      F1357   1.384       .  S
C1354      F1358   1.376       .  S
C1354      F1359   1.381       .  S
C1354      F1360   1.385       .  S
C1361      C1362   1.405       .  A
C1361      C1366   1.418       .  A
C1361      H1368   1.072       .  S
C1362      C1363   1.443       .  A
C1363      C1370   1.530       .  S
C1363      C1364   1.421       .  A
C1364      C1365   1.410       .  A
C1364      H1369   1.076       .  S
C1365      C1366   1.445       .  A
C1366      C1367   1.529       .  S
C1367      F1371   1.386       .  S
C1367      F1372   1.381       .  S
C1367      F1373   1.382       .  S
C1370      F1374   1.385       .  S
C1370      F1375   1.382       .  S
C1370      F1376   1.381       .  S
C1377      C1378   1.401       .  A
C1377      C1382   1.416       .  A
C1377      H1384   1.072       .  S
C1378      C1379   1.448       .  A
C1379      C1386   1.539       .  S
C1379      C1380   1.422       .  A
C1380      C1381   1.409       .  A
C1380      H1385   1.078       .  S
C1381      C1382   1.447       .  A
C1382      C1383   1.531       .  S
C1383      F1387   1.386       .  S
C1383      F1388   1.381       .  S
C1383      F1389   1.380       .  S
C1386      F1390   1.374       .  S
C1386      F1391   1.385       .  S
C1386      F1392   1.378       .  S
C1393      C1394   1.402       .  A
C1393      C1398   1.408       .  A
C1393      H1400   1.079       .  S
C1394      C1395   1.417       .  A
C1395      C1402   1.522       .  S
C1395      C1396   1.400       .  A
C1396      C1397   1.406       .  A
C1396      H1401   1.083       .  S
C1397      C1398   1.424       .  A
C1398      C1399   1.517       .  S
C1399      F1403   1.382       .  S
C1399      F1404   1.368       .  S
C1399      F1405   1.385       .  S
C1402      F1406   1.377       .  S
C1402      F1407   1.385       .  S
C1402      F1408   1.380       .  S
C1409      C1410   1.396       .  A
C1409      C1414   1.393       .  A
C1409      H1416   1.084       .  S
C1410      C1411   1.428       .  A
C1411      C1418   1.523       .  S
C1411      C1412   1.395       .  A
C1412      C1413   1.398       .  A
C1412      H1417   1.085       .  S
C1413      C1414   1.409       .  A
C1414      C1415   1.503       .  S
C1415      F1419   1.382       .  S
C1415      F1420   1.374       .  S
C1415      F1421   1.383       .  S
C1418      F1422   1.383       .  S
C1418      F1423   1.371       .  S
C1418      F1424   1.384       .  S
C1425      C1426   1.401       .  A
C1425      C1430   1.415       .  A
C1425      H1432   1.085       .  S
C1426      C1427   1.419       .  A
C1427      C1434   1.511       .  S
C1427      C1428   1.421       .  A
C1428      C1429   1.413       .  A
C1428      H1433   1.081       .  S
C1429      C1430   1.451       .  A
C1430      C1431   1.532       .  S
C1431      F1435   1.384       .  S
C1431      F1436   1.384       .  S
C1431      F1437   1.370       .  S
C1434      F1438   1.385       .  S
C1434      F1439   1.382       .  S
C1434      F1440   1.384       .  S
C1441      C1442   1.409       .  A
C1441      C1446   1.404       .  A
C1441      H1448   1.082       .  S
C1442      C1443   1.434       .  A
C1443      C1450   1.523       .  S
C1443      C1444   1.411       .  A
C1444      C3013   1.404   1_554  A
C1444      H3017   1.076       .  S
C1445      C3012   1.395       .  A
C1445      C3014   1.414       .  A
C1446      C3015   1.518       .  S
C1446      C3013   1.424   1_554  A
C1447      C3014   1.517       .  S
C1447      F1452   1.382       .  S
C1447      F1453   1.383       .  S
C1447      F3019   1.385       .  S
H1449      C3012   1.072       .  S
C1450      F1454   1.380       .  S
C1450      F1455   1.384       .  S
C1450      F1456   1.386       .  S
F1451      C3015   1.384       .  S
C1457      C1458   1.410       .  A
C1457      C1462   1.423       .  A
C1457      H1464   1.083       .  S
C1458      C1459   1.422       .  A
C1459      C1466   1.507       .  S
C1459      C1460   1.399       .  A
C1460      C1461   1.396       .  A
C1460      H1465   1.083       .  S
C1461      C1462   1.415       .  A
C1462      C1463   1.513       .  S
C1463      F1467   1.384       .  S
C1463      F1468   1.383       .  S
C1463      F1469   1.383       .  S
C1466      F1470   1.375       .  S
C1466      F1471   1.380       .  S
C1466      F1472   1.385       .  S
C1473      C1474   1.417       .  A
C1473      C1478   1.411       .  A
C1473      H1480   1.080       .  S
C1474      C1475   1.426       .  A
C1475      C1482   1.516       .  S
C1475      C1476   1.426       .  A
C1476      C1477   1.425       .  A
C1476      H1481   1.072       .  S
C1477      C1478   1.430       .  A
C1478      C1479   1.524       .  S
C1479      F1483   1.385       .  S
C1479      F1484   1.381       .  S
C1479      F1485   1.381       .  S
C1482      F1486   1.382       .  S
C1482      F1487   1.382       .  S
C1482      F1488   1.386       .  S
C1489      C1490   1.408       .  A
C1489      C1494   1.418       .  A
C1489      H1496   1.083       .  S
C1490      C1491   1.423       .  A
C1491      C1498   1.530       .  S
C1491      C1492   1.395       .  A
C1492      C3061   1.404       .  A
C1492      H3065   1.083       .  S
C1493      C3060   1.400       .  A
C1493      C3062   1.412       .  A
C1494      C3063   1.514       .  S
C1494      C3061   1.415       .  A
C1495      C3062   1.513       .  S
C1495      F1500   1.385       .  S
C1495      F1501   1.382       .  S
C1495      F3067   1.383       .  S
H1497      C3060   1.078       .  S
C1498      F1502   1.374       .  S
C1498      F1503   1.382       .  S
C1498      F1504   1.383       .  S
F1499      C3063   1.384       .  S
C1505      C1506   1.403       .  A
C1505      C1510   1.399       .  A
C1505      H1512   1.078       .  S
C1506      C1507   1.415       .  A
C1507      C1514   1.515       .  S
C1507      C1508   1.397       .  A
C1508      C1509   1.396       .  A
C1508      H1513   1.084       .  S
C1509      C1510   1.408       .  A
C1510      C1511   1.520       .  S
C1511      F1515   1.383       .  S
C1511      F1516   1.379       .  S
C1511      F1517   1.383       .  S
C1514      F1518   1.385       .  S
C1514      F1519   1.373       .  S
C1514      F1520   1.382       .  S
C1521      C1522   1.399       .  A
C1521      C1526   1.409       .  A
C1521      H1528   1.078       .  S
C1522      C1523   1.420       .  A
C1523      C1530   1.517       .  S
C1523      C1524   1.404       .  A
C1524      C1525   1.411       .  A
C1524      H1529   1.082       .  S
C1525      C1526   1.436       .  A
C1526      C1527   1.520       .  S
C1527      F1531   1.385       .  S
C1527      F1532   1.382       .  S
C1527      F1533   1.384       .  S
C1530      F1534   1.384       .  S
C1530      F1535   1.383       .  S
C1530      F1536   1.384       .  S
C1537      C1538   1.401       .  A
C1537      C1542   1.402       .  A
C1537      H1544   1.084       .  S
C1538      C1539   1.416       .  A
C1539      C1546   1.516       .  S
C1539      C1540   1.405       .  A
C1540      C1541   1.401       .  A
C1540      H1545   1.082       .  S
C1541      C1542   1.418       .  A
C1542      C1543   1.519       .  S
C1543      F1547   1.375       .  S
C1543      F1548   1.385       .  S
C1543      F1549   1.382       .  S
C1546      F1550   1.383       .  S
C1546      F1551   1.378       .  S
C1546      F1552   1.382       .  S
C1553      C1554   1.407       .  A
C1553      C1558   1.417       .  A
C1553      H1560   1.081       .  S
C1554      C1555   1.447       .  A
C1555      C1562   1.532       .  S
C1555      C1556   1.413       .  A
C1556      C1557   1.399       .  A
C1556      H1561   1.083       .  S
C1557      C1558   1.427       .  A
C1558      C1559   1.516       .  S
C1559      F1563   1.384       .  S
C1559      F1564   1.385       .  S
C1559      F1565   1.383       .  S
C1562      F1566   1.382       .  S
C1562      F1567   1.377       .  S
C1562      F1568   1.385       .  S
C1569      C1570   1.526       .  S
C1569      C1575   1.532       .  S
C1569      C1573   1.577       .  S
C1569      C3122   1.566       .  S
C1570      H1577   1.078       .  S
C1570      C1571   1.365       .  D
C1571      C1572   1.545       .  S
C1571      C3090   1.498       .  S
C1572      C1576   1.533       .  S
C1572      C1574   1.538       .  S
C1572      H1578   1.110       .  S
C1573      H1579   1.082       .  S
C1573      C1574   1.387       .  D
C1574      C1753   1.511       .  S
C1575      H1580   1.087       .  S
C1575      C1576   1.358       .  D
C1576      C3106   1.473       .  S
C1581      C1582   1.539       .  S
C1581      C1587   1.532       .  S
C1581      C1585   1.569       .  S
C1581      C3125   1.562       .  S
C1582      H1589   1.071       .  S
C1582      C1583   1.357       .  D
C1583      C1584   1.532       .  S
C1583      C3058   1.479       .  S
C1584      C1588   1.540       .  S
C1584      C1586   1.538       .  S
C1584      H1590   1.109       .  S
C1585      H1591   1.085       .  S
C1585      C1586   1.390       .  D
C1586      C2114   1.500       .  S
C1587      H1592   1.088       .  S
C1587      C1588   1.352       .  D
C1588      C3074   1.482       .  S
C1593      C1594   1.549       .  S
C1593      C1599   1.538       .  S
C1593      C1597   1.559       .  S
C1593      C3042   1.567       .  S
C1594      H1601   1.086       .  S
C1594      C1595   1.357       .  D
C1595      C1596   1.527       .  S
C1595      C3109   1.483       .  S
C1596      C1600   1.546       .  S
C1596      C1598   1.545       .  S
C1596      H1602   1.110       .  S
C1597      H1603   1.077       .  S
C1597      C1598   1.384       .  D
C1598      C1671   1.495       .  S
C1599      H1604   1.088       .  S
C1599      C1600   1.369       .  D
C1600      C3029   1.494       .  S
C1605      C1606   1.528       .  S
C1605      C1611   1.554       .  S
C1605      C1609   1.568       .  S
C1605      C3045   1.565       .  S
C1606      H1613   1.081       .  S
C1606      C1607   1.346       .  D
C1607      C1608   1.543       .  S
C1607      C3077   1.476       .  S
C1608      C1612   1.533       .  S
C1608      C1610   1.535       .  S
C1608      H1614   1.106       .  S
C1609      H1615   1.082       .  S
C1609      C1610   1.385       .  D
C1610      C2084   1.510       .  S
C1611      H1616   1.081       .  S
C1611      C1612   1.368       .  D
C1612      C3010   1.497       .  S
C1617      C1618   1.549       .  S
C1617      C1623   1.528       .  S
C1617      C1621   1.560       .  S
C1617      C2994   1.561       .  S
C1618      H1625   1.074       .  S
C1618      C1619   1.368       .  D
C1619      C1620   1.541       .  S
C1619      C3026   1.500       .  S
C1620      C1624   1.544       .  S
C1620      C1622   1.552       .  S
C1620      H1626   1.111       .  S
C1621      H1627   1.085       .  S
C1621      C1622   1.382       .  D
C1622      C1857   1.514       .  S
C1623      H1628   1.087       .  S
C1623      C1624   1.347       .  D
C1624      C2978   1.470       .  S
C1629      C1630   1.529       .  S
C1629      C1635   1.533       .  S
C1629      C1633   1.577       .  S
C1629      C2997   1.566       .  S
C1630      H1637   1.077       .  S
C1630      C1631   1.364       .  D
C1631      C1632   1.552       .  S
C1631      C3013   1.510       .  S
C1632      C1636   1.536       .  S
C1632      C1634   1.531       .  S
C1632      H1638   1.108       .  S
C1633      H1639   1.082       .  S
C1633      C1634   1.388       .  D
C1634      C2231   1.504       .  S
C1635      H1640   1.087       .  S
C1635      C1636   1.359       .  D
C1636      C2962   1.478       .  S
C1641      C1642   1.551       .  S
C1641      C1647   1.540       .  S
C1641      C1645   1.558       .  S
C1641      C2946   1.586       .  S
C1642      H1649   1.087       .  S
C1642      C1643   1.371       .  D
C1643      C1644   1.524       .  S
C1643      C2965   1.490       .  S
C1644      C1648   1.547       .  S
C1644      C1646   1.547       .  S
C1644      H1650   1.105       .  S
C1645      H1651   1.085       .  S
C1645      C1646   1.377       .  D
C1646      C2253   1.505       .  S
C1647      H1652   1.070       .  S
C1647      C1648   1.371       .  D
C1648      C3061   1.502   1_556  S
C1653      C1654   1.520       .  S
C1653      C1659   1.546       .  S
C1653      C1657   1.578       .  S
C1653      C2949   1.570       .  S
C1654      H1661   1.089       .  S
C1654      C1655   1.346       .  D
C1655      C1656   1.533       .  S
C1655      C2981   1.468       .  S
C1656      C1660   1.538       .  S
C1656      C1658   1.530       .  S
C1656      H1662   1.089       .  S
C1657      H1663   1.083       .  S
C1657      C1658   1.389       .  D
C1658      C1775   1.506       .  S
C1659      H1664   1.077       .  S
C1659      C1660   1.380       .  D
C1660      C3093   1.521       .  S
In1665     O1667   2.252       .  S
In1665     O1668   2.263       .  S
In1665     O1676   2.268       .  S
In1665     O1670   2.308       .  S
In1665     O1672   2.340       .  S
In1665     O1673   2.290       .  S
In1665     O1674   2.270       .  S
In1665     O1677   2.270       .  S
C1666      O1672   1.266       .  A
C1666      O1674   1.258       .  A
C1666      C1744   1.501       .  S
O1667      C1675   1.262       .  A
O1668      C1675   1.262       .  A
C1669      O1676   1.258       .  A
C1669      O1670   1.264       .  A
C1669      C1682   1.491   1_655  S
C1671      O1673   1.260       .  A
C1671      O1677   1.263       .  A
In1678     O1680   2.277       .  S
In1678     O1681   2.310       .  S
In1678     O1689   2.271       .  S
In1678     O1683   2.306       .  S
In1678     O1685   2.333       .  S
In1678     O1686   2.268       .  S
In1678     O1687   2.279       .  S
In1678     O1690   2.254       .  S
C1679      O1685   1.265       .  A
C1679      O1687   1.261       .  A
C1679      C1692   1.506       .  S
O1680      C1688   1.266       .  A
O1681      C1688   1.261       .  A
C1682      O1689   1.259       .  A
C1682      O1683   1.263       .  A
C1684      O1686   1.262       .  A
C1684      O1690   1.258       .  A
C1688      C1974   1.509       .  S
In1691     O1693   2.249       .  S
In1691     O1694   2.249       .  S
In1691     O1702   2.280       .  S
In1691     O1696   2.341       .  S
In1691     O1698   2.341       .  S
In1691     O1699   2.293       .  S
In1691     O1700   2.269       .  S
In1691     O1703   2.271       .  S
C1692      O1698   1.271       .  A
C1692      O1700   1.258       .  A
O1693      C1701   1.262       .  A
O1694      C1701   1.263       .  A
C1695      O1702   1.260       .  A
C1695      O1696   1.269       .  A
C1695      C1708   1.511   1_565  S
C1697      C2010   1.501       .  S
C1697      O1699   1.261       .  A
C1697      O1703   1.265       .  A
In1704     O1706   2.275       .  S
In1704     O1707   2.318       .  S
In1704     O1715   2.286       .  S
In1704     O1709   2.340       .  S
In1704     O1711   2.331       .  S
In1704     O1712   2.253       .  S
In1704     O1713   2.282       .  S
In1704     O1716   2.249       .  S
C1705      O1711   1.269       .  A
C1705      O1713   1.260       .  A
C1705      C1731   1.507       .  S
O1706      C1714   1.265       .  A
O1707      C1714   1.262       .  A
C1708      O1715   1.260       .  A
C1708      O1709   1.267       .  A
C1710      O1712   1.263       .  A
C1710      O1716   1.260       .  A
C1714      C1878   1.508       .  S
In1717     O1719   2.244       .  S
In1717     O1720   2.255       .  S
In1717     O1728   2.342       .  S
In1717     O1722   2.282       .  S
In1717     O1724   2.286       .  S
In1717     O1725   2.267       .  S
In1717     O1726   2.308       .  S
In1717     O1729   2.353       .  S
C1718      C2314   1.508       .  S
C1718      O1724   1.266       .  A
C1718      O1726   1.259       .  A
O1719      C1727   1.262       .  A
O1720      C1727   1.262       .  A
C1721      O1728   1.267       .  A
C1721      O1722   1.258       .  A
C1721      C1734   1.507   1_655  S
C1723      O1725   1.258       .  A
C1723      O1729   1.269       .  A
C1723      C1757   1.508       .  S
C1727      C1831   1.467       .  S
In1730     O1732   2.266       .  S
In1730     O1733   2.266       .  S
In1730     O1741   2.285       .  S
In1730     O1735   2.338       .  S
In1730     O1737   2.332       .  S
In1730     O1738   2.309       .  S
In1730     O1739   2.290       .  S
In1730     O1742   2.298       .  S
C1731      O1737   1.266       .  A
C1731      O1739   1.261       .  A
O1732      C1740   1.261       .  A
O1733      C1740   1.261       .  A
C1734      O1741   1.259       .  A
C1734      O1735   1.265       .  A
C1736      C1902   1.510       .  S
C1736      O1738   1.260       .  A
C1736      O1742   1.264       .  A
In1743     O1745   2.283       .  S
In1743     O1746   2.314       .  S
In1743     O1754   2.287       .  S
In1743     O1748   2.331       .  S
In1743     O1750   2.339       .  S
In1743     O1751   2.255       .  S
In1743     O1752   2.267       .  S
In1743     O1755   2.244       .  S
C1744      O1750   1.268       .  A
C1744      O1752   1.257       .  A
O1745      C1753   1.266       .  A
O1746      C1753   1.261       .  A
C1747      O1754   1.260       .  A
C1747      O1748   1.265       .  A
C1747      C1760   1.507       .  S
C1749      O1751   1.263       .  A
C1749      O1755   1.259       .  A
In1756     O1758   2.257       .  S
In1756     O1759   2.262       .  S
In1756     O1767   2.291       .  S
In1756     O1761   2.338       .  S
In1756     O1763   2.354       .  S
In1756     O1764   2.301       .  S
In1756     O1765   2.267       .  S
In1756     O1768   2.285       .  S
C1757      O1763   1.268       .  A
C1757      O1765   1.258       .  A
O1758      C1766   1.261       .  A
O1759      C1766   1.261       .  A
C1760      O1767   1.258   1_565  A
C1760      O1761   1.264   1_565  A
C1762      C2278   1.506       .  S
C1762      O1764   1.259       .  A
C1762      O1768   1.267       .  A
C1766      C1788   1.470       .  S
In1769     O1771   2.256   1_556  S
In1769     O1772   2.261   1_556  S
In1769     O1780   2.292       .  S
In1769     O1774   2.340       .  S
In1769     O1776   2.353       .  S
In1769     O1777   2.314       .  S
In1769     O1778   2.286       .  S
In1769     O1781   2.280       .  S
C1770      O1776   1.267       .  A
C1770      O1778   1.260       .  A
C1770      C1848   1.512       .  S
O1771      C1779   1.261       .  A
O1772      C1779   1.260       .  A
C1773      O1780   1.259       .  A
C1773      O1774   1.264       .  A
C1773      C1786   1.508       .  S
C1775      O1777   1.258       .  A
C1775      O1781   1.266       .  A
In1782     O1784   2.270       .  S
In1782     O1785   2.302       .  S
In1782     O1793   2.284       .  S
In1782     O1787   2.340       .  S
In1782     O1789   2.356       .  S
In1782     O1791   2.301       .  S
In1782     O1794   2.252   1_556  S
C1783      O1789   1.270       .  A
C1783      O1791   1.261       .  A
C1783      C1822   1.521       .  S
O1784      C1792   1.266       .  A
O1785      C1792   1.260       .  A
C1786      O1793   1.259   1_565  A
C1786      O1787   1.268   1_565  A
C1788      O1790   1.262       .  A
C1792      C2323   1.502       .  S
In1795     O1797   2.267       .  S
In1795     O1798   2.320       .  S
In1795     O1806   2.295       .  S
In1795     O1800   2.340       .  S
In1795     O1802   2.356       .  S
In1795     O1803   2.252       .  S
In1795     O1804   2.277       .  S
In1795     O1807   2.261       .  S
C1796      O1802   1.268       .  A
C1796      O1804   1.259       .  A
C1796      C1861   1.511       .  S
O1797      C1805   1.267       .  A
O1798      C1805   1.260       .  A
C1799      O1806   1.259       .  A
C1799      O1800   1.265       .  A
C1799      C1812   1.510       .  S
C1801      O1803   1.260   1_554  A
C1801      O1807   1.261   1_554  A
C1805      C2058   1.512       .  S
In1808     O1810   2.247       .  S
In1808     O1811   2.268       .  S
In1808     O1819   2.294       .  S
In1808     O1813   2.337       .  S
In1808     O1815   2.362       .  S
In1808     O1816   2.305       .  S
In1808     O1817   2.289       .  S
In1808     O1820   2.291       .  S
C1809      O1815   1.268       .  A
C1809      O1817   1.258       .  A
C1809      C1835   1.516       .  S
O1810      C1818   1.261   1_556  A
O1811      C1818   1.262   1_556  A
C1812      O1819   1.259   1_565  A
C1812      O1813   1.265   1_565  A
C1814      C1926   1.505       .  S
C1814      O1816   1.259       .  A
C1814      O1820   1.266       .  A
In1821     O1823   2.244       .  S
In1821     O1824   2.268       .  S
In1821     O1832   2.294       .  S
In1821     O1826   2.346       .  S
In1821     O1828   2.356       .  S
In1821     O1829   2.325       .  S
In1821     O1830   2.304       .  S
In1821     O1833   2.276       .  S
C1822      O1828   1.269       .  A
C1822      O1830   1.261       .  A
C1825      O1832   1.259       .  A
C1825      O1826   1.266       .  A
C1825      C1838   1.513   1_655  S
C1827      C2362   1.510       .  S
C1827      O1829   1.260       .  A
C1827      O1833   1.266       .  A
In1834     O1836   2.338       .  S
In1834     O1837   2.308       .  S
In1834     O1845   2.293       .  S
In1834     O1839   2.346       .  S
In1834     O1841   2.357       .  S
In1834     O1842   2.287       .  S
In1834     O1843   2.283       .  S
In1834     O1846   2.262       .  S
C1835      O1841   1.269       .  A
C1835      O1843   1.259       .  A
O1836      C1844   1.266       .  A
O1837      C1844   1.262       .  A
C1838      O1845   1.259       .  A
C1838      O1839   1.267       .  A
C1840      O1842   1.265   1_554  A
C1840      O1846   1.260   1_554  A
C1844      C1950   1.524       .  S
In1847     O1849   2.323       .  S
In1847     O1850   2.298       .  S
In1847     O1858   2.287       .  S
In1847     O1852   2.352       .  S
In1847     O1854   2.351       .  S
In1847     O1855   2.272       .  S
In1847     O1856   2.277       .  S
In1847     O1859   2.256       .  S
C1848      O1854   1.270       .  A
C1848      O1856   1.259       .  A
O1849      C1857   1.265       .  A
O1850      C1857   1.260       .  A
C1851      O1858   1.258       .  A
C1851      O1852   1.268       .  A
C1851      C1864   1.514   1_655  S
C1853      O1855   1.264   1_554  A
C1853      O1859   1.262   1_554  A
In1860     O1862   2.254       .  S
In1860     O1863   2.267       .  S
In1860     O1871   2.290       .  S
In1860     O1865   2.353       .  S
In1860     O1867   2.352       .  S
In1860     O1868   2.309       .  S
In1860     O1869   2.272       .  S
In1860     O1872   2.321       .  S
C1861      O1867   1.270       .  A
C1861      O1869   1.259       .  A
O1862      C1870   1.261   1_556  A
O1863      C1870   1.263   1_556  A
C1864      O1871   1.259       .  A
C1864      O1865   1.267       .  A
C1866      C2022   1.518       .  S
C1866      O1868   1.260       .  A
C1866      O1872   1.266       .  A
C1873      C1874   1.539       .  S
C1873      C1879   1.527       .  S
C1873      C1877   1.579       .  S
C1873      C2930   1.564       .  S
C1874      H1881   1.086       .  S
C1874      C1875   1.368       .  D
C1875      C1876   1.545       .  S
C1875      C2898   1.505       .  S
C1876      C1880   1.532       .  S
C1876      C1878   1.536       .  S
C1876      H1882   1.110       .  S
C1877      H1883   1.083       .  S
C1877      C1878   1.392       .  D
C1879      H1884   1.088       .  S
C1879      C1880   1.352       .  D
C1880      C2914   1.469       .  S
C1885      C1886   1.550       .  S
C1885      C1891   1.530       .  S
C1885      C1889   1.565       .  S
C1885      C2933   1.569       .  S
C1886      H1893   1.074       .  S
C1886      C1887   1.378       .  D
C1887      C1888   1.554       .  S
C1887      C2866   1.523       .  S
C1888      C1892   1.546       .  S
C1888      C1890   1.545       .  S
C1888      H1894   1.097       .  S
C1889      H1895   1.085       .  S
C1889      C1890   1.382       .  D
C1890      C2166   1.519       .  S
C1891      H1896   1.088       .  S
C1891      C1892   1.349       .  D
C1892      C2885   1.479       .  S
C1897      C1898   1.545       .  S
C1897      C1903   1.532       .  S
C1897      C1901   1.565       .  S
C1897      C2850   1.571       .  S
C1898      H1905   1.088       .  S
C1898      C1899   1.357       .  D
C1899      C1900   1.523       .  S
C1899      C2917   1.473       .  S
C1900      C1904   1.551       .  S
C1900      C1902   1.551       .  S
C1900      H1906   1.110       .  S
C1901      H1907   1.078       .  S
C1901      C1902   1.391       .  D
C1903      H1908   1.088       .  S
C1903      C1904   1.366       .  D
C1904      C2837   1.513       .  S
C1909      C1910   1.527       .  S
C1909      C1915   1.558       .  S
C1909      C1913   1.566       .  S
C1909      C2853   1.566       .  S
C1910      H1917   1.086       .  S
C1910      C1911   1.343       .  D
C1911      C1912   1.528       .  S
C1911      C2882   1.462       .  S
C1912      C1916   1.545       .  S
C1912      C1914   1.526       .  S
C1912      H1918   1.087       .  S
C1913      H1919   1.080       .  S
C1913      C1914   1.379       .  D
C1914      C2123   1.504       .  S
C1915      H1920   1.079       .  S
C1915      C1916   1.385       .  D
C1916      C2818   1.527       .  S
C1921      C1922   1.529       .  S
C1921      C1927   1.552       .  S
C1921      C1925   1.569       .  S
C1921      C2802   1.583       .  S
C1922      H1929   1.088       .  S
C1922      C1923   1.354       .  D
C1923      C1924   1.533       .  S
C1923      C2786   1.470       .  S
C1924      C1928   1.546       .  S
C1924      C1926   1.535       .  S
C1924      H1930   1.097       .  S
C1925      H1931   1.077       .  S
C1925      C1926   1.383       .  D
C1927      H1932   1.080       .  S
C1927      C1928   1.378       .  D
C1928      C2901   1.524       .  S
C1933      C1934   1.534       .  S
C1933      C1939   1.551       .  S
C1933      C1937   1.575       .  S
C1933      C2805   1.577       .  S
C1934      H1941   1.088       .  S
C1934      C1935   1.352       .  D
C1935      C1936   1.529       .  S
C1935      C2770   1.472       .  S
C1936      C1940   1.538       .  S
C1936      C1938   1.528       .  S
C1936      H1942   1.110       .  S
C1937      H1943   1.076       .  S
C1937      C1938   1.385       .  D
C1938      C2175   1.496       .  S
C1939      H1944   1.084       .  S
C1939      C1940   1.368       .  D
C1945      C1946   1.550       .  S
C1945      C1951   1.538       .  S
C1945      C1949   1.556       .  S
C1945      C2754   1.573       .  S
C1946      H1953   1.081       .  S
C1946      C1947   1.367       .  D
C1947      C1948   1.556       .  S
C1947      C2834   1.516       .  S
C1948      C1952   1.528       .  S
C1948      C1950   1.565       .  S
C1948      H1954   1.111       .  S
C1949      H1955   1.080       .  S
C1949      C1950   1.383       .  D
C1951      H1956   1.088       .  S
C1951      C1952   1.351       .  D
C1952      C2789   1.467       .  S
C1957      C1958   1.540       .  S
C1957      C1963   1.539       .  S
C1957      C1961   1.576       .  S
C1957      C2757   1.572       .  S
C1958      H1965   1.086       .  S
C1958      C1959   1.367       .  D
C1959      C1960   1.544       .  S
C1960      C1964   1.527       .  S
C1960      C1962   1.530       .  S
C1960      H1966   1.109       .  S
C1961      H1967   1.076       .  S
C1961      C1962   1.388       .  D
C1962      C2218   1.507       .  S
C1963      H1968   1.087       .  S
C1963      C1964   1.357       .  D
C1964      C2773   1.467       .  S
C1969      C1970   1.522       .  S
C1969      C1975   1.533       .  S
C1969      C1973   1.573       .  S
C1969      C2738   1.560       .  S
C1970      H1977   1.079       .  S
C1970      C1971   1.362       .  D
C1971      C1972   1.559       .  S
C1971      C2706   1.514       .  S
C1972      C1976   1.534       .  S
C1972      C1974   1.534       .  S
C1972      H1978   1.107       .  S
C1973      H1979   1.079       .  S
C1973      C1974   1.389       .  D
C1975      H1980   1.086       .  S
C1975      C1976   1.355       .  D
C1976      C2722   1.472       .  S
C1981      C1982   1.545       .  S
C1981      C1987   1.542       .  S
C1981      C1985   1.543       .  S
C1981      C2741   1.562       .  S
C1982      H1989   1.073       .  S
C1982      C1983   1.360       .  D
C1983      C1984   1.561       .  S
C1983      C2677   1.516       .  S
C1984      C1988   1.520       .  S
C1984      C1986   1.564       .  S
C1984      H1990   1.111       .  S
C1985      H1991   1.081       .  S
C1985      C1986   1.378       .  D
C1986      C2140   1.510       .  S
C1987      H1992   1.088       .  S
C1987      C1988   1.357       .  D
C1988      C2690   1.466       .  S
C1993      C1994   1.538       .  S
C1993      C1999   1.544       .  S
C1993      C1997   1.575       .  S
C1993      C2658   1.577       .  S
C1994      H2001   1.088       .  S
C1994      C1995   1.348       .  D
C1995      C1996   1.518       .  S
C1995      C2693   1.462       .  S
C1996      C2000   1.529       .  S
C1996      C1998   1.531       .  S
C1996      H2002   1.109       .  S
C1997      H2003   1.077       .  S
C1997      C1998   1.393       .  D
C1998      C2097   1.496       .  S
C1999      H2004   1.087       .  S
C1999      C2000   1.368       .  D
C2000      C2642   1.485       .  S
C2005      C2006   1.534       .  S
C2005      C2011   1.544       .  S
C2005      C2009   1.565       .  S
C2005      C2661   1.582       .  S
C2006      H2013   1.087       .  S
C2006      C2007   1.367       .  D
C2007      C2008   1.532       .  S
C2007      C2725   1.488       .  S
C2008      C2012   1.556       .  S
C2008      C2010   1.532       .  S
C2008      H2014   1.103       .  S
C2009      H2015   1.078       .  S
C2009      C2010   1.378       .  D
C2011      H2016   1.073       .  S
C2011      C2012   1.374       .  D
C2012      C2626   1.513       .  S
C2017      C2018   1.529       .  S
C2017      C2023   1.548       .  S
C2017      C2021   1.569       .  S
C2017      C2610   1.579       .  S
C2018      H2025   1.088       .  S
C2018      C2019   1.349       .  D
C2019      C2020   1.521       .  S
C2019      C2597   1.458       .  S
C2020      C2024   1.553       .  S
C2020      C2022   1.542       .  S
C2020      H2026   1.092       .  S
C2021      H2027   1.075       .  S
C2021      C2022   1.381       .  D
C2023      H2028   1.079       .  S
C2023      C2024   1.385       .  D
C2024      C2709   1.531       .  S
C2029      C2030   1.539       .  S
C2029      C2035   1.543       .  S
C2029      C2033   1.572       .  S
C2029      C2613   1.578       .  S
C2030      H2037   1.084       .  S
C2030      C2031   1.353       .  D
C2031      C2032   1.524       .  S
C2031      C2578   1.475       .  S
C2032      C2036   1.539       .  S
C2032      C2034   1.530       .  S
C2032      H2038   1.109       .  S
C2033      H2039   1.076       .  S
C2033      C2034   1.387       .  D
C2034      C2201   1.498       .  S
C2035      H2040   1.086       .  S
C2035      C2036   1.369       .  D
C2036      C2674   1.497       .  S
C2041      C2042   1.531       .  S
C2041      C2047   1.543       .  S
C2041      C2045   1.559       .  S
C2041      C2562   1.573       .  S
C2042      H2049   1.074       .  S
C2042      C2043   1.358       .  D
C2043      C2044   1.550       .  S
C2043      C2645   1.496   1_556  S
C2044      C2048   1.532       .  S
C2044      C2046   1.544       .  S
C2044      H2050   1.101       .  S
C2045      H2051   1.085       .  S
C2045      C2046   1.386       .  D
C2046      C2270   1.510       .  S
C2047      H2052   1.087       .  S
C2047      C2048   1.374       .  D
C2048      C2581   1.496       .  S
C2053      C2054   1.536       .  S
C2053      C2059   1.516       .  S
C2053      C2057   1.580       .  S
C2053      C2565   1.571       .  S
C2054      H2061   1.080       .  S
C2054      C2055   1.380       .  D
C2055      C2056   1.546       .  S
C2055      C2629   1.528       .  S
C2056      C2060   1.528       .  S
C2056      C2058   1.533       .  S
C2056      H2062   1.086       .  S
C2057      H2063   1.084       .  S
C2057      C2058   1.399       .  D
C2059      H2064   1.088       .  S
C2059      C2060   1.342       .  D
C2060      C2594   1.462       .  S
In2065     O2067   2.287       .  S
In2065     O2068   2.320       .  S
In2065     O2076   2.280       .  S
In2065     O2070   2.345       .  S
In2065     O2072   2.352       .  S
In2065     O2073   2.275       .  S
In2065     O2074   2.303       .  S
In2065     O2077   2.261       .  S
C2066      O2072   1.268       .  A
C2066      O2074   1.261       .  A
C2066      C2144   1.520       .  S
O2067      C2075   1.267       .  A
O2068      C2075   1.261       .  A
C2069      O2076   1.259       .  A
C2069      O2070   1.268       .  A
C2069      C2082   1.509       .  S
C2071      O2073   1.262       .  A
C2071      O2077   1.260       .  A
C2071      C2244   1.478       .  S
C2075      C2302   1.514       .  S
In2078     O2080   2.249       .  S
In2078     O2081   2.258       .  S
In2078     O2089   2.282       .  S
In2078     O2083   2.349       .  S
In2078     O2085   2.364       .  S
In2078     O2086   2.307       .  S
In2078     O2087   2.270       .  S
In2078     O2090   2.301       .  S
C2079      O2085   1.270       .  A
C2079      O2087   1.257       .  A
C2079      C2105   1.512       .  S
O2080      C2088   1.262       .  A
O2081      C2088   1.262       .  A
C2082      O2089   1.257       .  A
C2082      O2083   1.266       .  A
C2084      O2086   1.258       .  A
C2084      O2090   1.266       .  A
C2088      C2227   1.469       .  S
In2091     O2093   2.260       .  S
In2091     O2094   2.246       .  S
In2091     O2102   2.279       .  S
In2091     O2096   2.323       .  S
In2091     O2098   2.334       .  S
In2091     O2099   2.291       .  S
In2091     O2100   2.266       .  S
In2091     O2103   2.264       .  S
C2092      O2098   1.266       .  A
C2092      O2100   1.258       .  A
C2092      C2131   1.500       .  S
O2093      C2101   1.261       .  A
O2094      C2101   1.258       .  A
C2095      O2102   1.258       .  A
C2095      O2096   1.263       .  A
C2095      C2108   1.497       .  S
C2097      O2099   1.258       .  A
C2097      O2103   1.267       .  A
C2101      C2266   1.467       .  S
In2104     O2106   2.281       .  S
In2104     O2107   2.298       .  S
In2104     O2115   2.276       .  S
In2104     O2109   2.324       .  S
In2104     O2111   2.363       .  S
In2104     O2112   2.259       .  S
In2104     O2113   2.275       .  S
In2104     O2116   2.257       .  S
C2105      O2111   1.268       .  A
C2105      O2113   1.257       .  A
O2106      C2114   1.265       .  A
O2107      C2114   1.258       .  A
C2108      O2115   1.257       .  A
C2108      O2109   1.264       .  A
C2110      O2112   1.261       .  A
C2110      O2116   1.262       .  A
C2110      C2257   1.472       .  S
In2117     O2119   2.249       .  S
In2117     O2120   2.253       .  S
In2117     O2128   2.273       .  S
In2117     O2122   2.338       .  S
In2117     O2124   2.353       .  S
In2117     O2125   2.303       .  S
In2117     O2126   2.283       .  S
In2117     O2129   2.283       .  S
C2118      O2124   1.268       .  A
C2118      O2126   1.260       .  A
C2118      C2157   1.515       .  S
O2119      C2127   1.261       .  A
O2120      C2127   1.260       .  A
C2121      O2128   1.257       .  A
C2121      O2122   1.265       .  A
C2121      C2134   1.501       .  S
C2123      O2125   1.257       .  A
C2123      O2129   1.266       .  A
C2127      C2214   1.466       .  S
In2130     O2132   2.319       .  S
In2130     O2133   2.277       .  S
In2130     O2141   2.266       .  S
In2130     O2135   2.332       .  S
In2130     O2137   2.330       .  S
In2130     O2138   2.262       .  S
In2130     O2139   2.261       .  S
In2130     O2142   2.259       .  S
C2131      O2137   1.269       .  A
C2131      O2139   1.259       .  A
O2132      C2140   1.265       .  A
O2133      C2140   1.261       .  A
C2134      O2141   1.259       .  A
C2134      O2135   1.268       .  A
C2136      O2138   1.264       .  A
C2136      O2142   1.261       .  A
C2136      C2205   1.473       .  S
In2143     O2145   2.261       .  S
In2143     O2146   2.282       .  S
In2143     O2154   2.302       .  S
In2143     O2148   2.347       .  S
In2143     O2150   2.354       .  S
In2143     O2151   2.331       .  S
In2143     O2152   2.305       .  S
In2143     O2155   2.277       .  S
C2144      O2150   1.268       .  A
C2144      O2152   1.260       .  A
O2145      C2153   1.260       .  A
O2146      C2153   1.262       .  A
C2147      O2154   1.262       .  A
C2147      O2148   1.267       .  A
C2147      C2160   1.517       .  S
C2149      C2290   1.514       .  S
C2149      O2151   1.261       .  A
C2149      O2155   1.265       .  A
C2153      C2188   1.479       .  S
In2156     O2158   2.312       .  S
In2156     O2159   2.317       .  S
In2156     O2167   2.297       .  S
In2156     O2161   2.349       .  S
In2156     O2163   2.356       .  S
In2156     O2164   2.256       .  S
In2156     O2165   2.282       .  S
In2156     O2168   2.256       .  S
C2157      O2163   1.270       .  A
C2157      O2165   1.259       .  A
O2158      C2166   1.266       .  A
O2159      C2166   1.261       .  A
C2160      O2167   1.260       .  A
C2160      O2161   1.268       .  A
C2162      O2164   1.264       .  A
C2162      O2168   1.261       .  A
C2162      C2179   1.471       .  S
In2169     O2171   2.264       .  S
In2169     O2172   2.250       .  S
In2169     O2180   2.278       .  S
In2169     O2174   2.339       .  S
In2169     O2176   2.348       .  S
In2169     O2177   2.289       .  S
In2169     O2178   2.278       .  S
In2169     O2181   2.268       .  S
C2170      O2176   1.268       .  A
C2170      O2178   1.258       .  A
C2170      C2209   1.509       .  S
O2171      C2179   1.263       .  A
O2172      C2179   1.259       .  A
C2173      O2180   1.258       .  A
C2173      O2174   1.266       .  A
C2173      C2186   1.504       .  S
C2175      O2177   1.258       .  A
C2175      O2181   1.265       .  A
In2182     O2184   2.319       .  S
In2182     O2185   2.292       .  S
In2182     O2193   2.282       .  S
In2182     O2187   2.335       .  S
In2182     O2189   2.340       .  S
In2182     O2190   2.280       .  S
In2182     O2191   2.264       .  S
In2182     O2194   2.261       .  S
C2183      O2189   1.267       .  A
C2183      O2191   1.258       .  A
C2183      C2235   1.502       .  S
O2184      C2192   1.265       .  A
O2185      C2192   1.259       .  A
C2186      O2193   1.259       .  A
C2186      O2187   1.265       .  A
C2188      O2190   1.263       .  A
C2188      O2194   1.261       .  A
C2192      C2338   1.511       .  S
In2195     O2197   2.264       .  S
In2195     O2198   2.257       .  S
In2195     O2206   2.267       .  S
In2195     O2200   2.333       .  S
In2195     O2202   2.345       .  S
In2195     O2203   2.288       .  S
In2195     O2204   2.286       .  S
In2195     O2207   2.276       .  S
C2196      O2202   1.267       .  A
C2196      O2204   1.260       .  A
C2196      C2261   1.510       .  S
O2197      C2205   1.262       .  A
O2198      C2205   1.259       .  A
C2199      O2206   1.257       .  A
C2199      O2200   1.266       .  A
C2199      C2212   1.500       .  S
C2201      O2203   1.258       .  A
C2201      O2207   1.266       .  A
In2208     O2210   2.284       .  S
In2208     O2211   2.310       .  S
In2208     O2219   2.269       .  S
In2208     O2213   2.330       .  S
In2208     O2215   2.340       .  S
In2208     O2216   2.256       .  S
In2208     O2217   2.282       .  S
In2208     O2220   2.245       .  S
C2209      O2215   1.267       .  A
C2209      O2217   1.260       .  A
O2210      C2218   1.266       .  A
O2211      C2218   1.259       .  A
C2212      O2219   1.258       .  A
C2212      O2213   1.266       .  A
C2214      O2216   1.262       .  A
C2214      O2220   1.259       .  A
In2221     O2223   2.273       .  S
In2221     O2224   2.303       .  S
In2221     O2232   2.274       .  S
In2221     O2226   2.320       .  S
In2221     O2228   2.331       .  S
In2221     O2229   2.267       .  S
In2221     O2230   2.286       .  S
In2221     O2233   2.253       .  S
C2222      O2228   1.266       .  A
C2222      O2230   1.260       .  A
C2222      C2248   1.506       .  S
O2223      C2231   1.266       .  A
O2224      C2231   1.260       .  A
C2225      O2232   1.259       .  A
C2225      O2226   1.264       .  A
C2225      C2238   1.497       .  S
C2227      O2229   1.260       .  A
C2227      O2233   1.258       .  A
In2234     O2236   2.264       .  S
In2234     O2237   2.273       .  S
In2234     O2245   2.271       .  S
In2234     O2239   2.326       .  S
In2234     O2241   2.341       .  S
In2234     O2242   2.269       .  S
In2234     O2243   2.262       .  S
In2234     O2246   2.313       .  S
C2235      O2241   1.269       .  A
C2235      O2243   1.258       .  A
O2236      C2244   1.262       .  A
O2237      C2244   1.262       .  A
C2238      O2245   1.257       .  A
C2238      O2239   1.265       .  A
C2240      C2350   1.503       .  S
C2240      O2242   1.260       .  A
C2240      O2246   1.266       .  A
In2247     O2249   2.251       .  S
In2247     O2250   2.265       .  S
In2247     O2258   2.279       .  S
In2247     O2252   2.335       .  S
In2247     O2254   2.331       .  S
In2247     O2255   2.293       .  S
In2247     O2256   2.280       .  S
In2247     O2259   2.293       .  S
C2248      O2254   1.269       .  A
C2248      O2256   1.259       .  A
O2249      C2257   1.261       .  A
O2250      C2257   1.264       .  A
C2251      O2258   1.261       .  A
C2251      O2252   1.268       .  A
C2251      C2264   1.508       .  S
C2253      O2255   1.261       .  A
C2253      O2259   1.264       .  A
In2260     O2262   2.294       .  S
In2260     O2263   2.303       .  S
In2260     O2271   2.282       .  S
In2260     O2265   2.342       .  S
In2260     O2267   2.341       .  S
In2260     O2268   2.249       .  S
In2260     O2269   2.280       .  S
In2260     O2272   2.254       .  S
C2261      O2267   1.269       .  A
C2261      O2269   1.260       .  A
O2262      C2270   1.266       .  A
O2263      C2270   1.260       .  A
C2264      O2271   1.259       .  A
C2264      O2265   1.268       .  A
C2266      O2268   1.262       .  A
C2266      O2272   1.261       .  A
C2273      C2274   1.537       .  S
C2273      C2279   1.550       .  S
C2273      C2277   1.569       .  S
C2273      C2546   1.569       .  S
C2274      H2281   1.088       .  S
C2274      C2275   1.349       .  D
C2275      C2276   1.526       .  S
C2275      C2530   1.461       .  S
C2276      C2280   1.544       .  S
C2276      C2278   1.529       .  S
C2276      H2282   1.110       .  S
C2277      H2283   1.085       .  S
C2277      C2278   1.383       .  D
C2279      H2284   1.076       .  S
C2279      C2280   1.375       .  D
C2280      C2517   1.498       .  S
C2285      C2286   1.535       .  S
C2285      C2291   1.525       .  S
C2285      C2289   1.581       .  S
C2285      C2549   1.570       .  S
C2286      H2293   1.085       .  S
C2286      C2287   1.366       .  D
C2287      C2288   1.523       .  S
C2287      C2498   1.473       .  S
C2288      C2292   1.540       .  S
C2288      C2290   1.537       .  S
C2288      H2294   1.108       .  S
C2289      H2295   1.083       .  S
C2289      C2290   1.399       .  D
C2291      H2296   1.085       .  S
C2291      C2292   1.351       .  D
C2292      C2485   1.493       .  S
C2297      C2298   1.542       .  S
C2297      C2303   1.540       .  S
C2297      C2301   1.583       .  S
C2297      C2466   1.593       .  S
C2298      H2305   1.086       .  S
C2298      C2299   1.372       .  D
C2299      C2300   1.543       .  S
C2299      C2453   1.503       .  S
C2300      C2304   1.521       .  S
C2300      C2302   1.527       .  S
C2300      H2306   1.099       .  S
C2301      H2307   1.081       .  S
C2301      C2302   1.385       .  D
C2303      H2308   1.087       .  S
C2303      C2304   1.376       .  D
C2304      C2501   1.485       .  S
C2309      C2310   1.553       .  S
C2309      C2315   1.531       .  S
C2309      C2313   1.578       .  S
C2309      C2469   1.585       .  S
C2310      H2317   1.072       .  S
C2310      C2311   1.381       .  D
C2311      C2312   1.538       .  S
C2311      C2434   1.509       .  S
C2312      C2316   1.524       .  S
C2312      C2314   1.528       .  S
C2312      H2318   1.108       .  S
C2313      H2319   1.083       .  S
C2313      C2314   1.382       .  D
C2315      H2320   1.088       .  S
C2315      C2316   1.354       .  D
C2316      C2533   1.459       .  S
C2321      C2322   1.570       .  S
C2321      C2327   1.549       .  S
C2321      C2325   1.528       .  S
C2321      C2418   1.567       .  S
C2322      H2329   1.079       .  S
C2322      C2323   1.389       .  D
C2323      C2324   1.536       .  S
C2324      C2328   1.541       .  S
C2324      C2326   1.529       .  S
C2324      H2330   1.097       .  S
C2325      H2331   1.088       .  S
C2325      C2326   1.342       .  D
C2326      C2402   1.458       .  S
C2327      H2332   1.086       .  S
C2327      C2328   1.379       .  D
C2328      C2514   1.522       .  S
C2333      C2334   1.545       .  S
C2333      C2339   1.538       .  S
C2333      C2337   1.559       .  S
C2333      C2421   1.577       .  S
C2334      H2341   1.081       .  S
C2334      C2335   1.374       .  D
C2335      C2336   1.550       .  S
C2336      C2340   1.536       .  S
C2336      C2338   1.548       .  S
C2336      H2342   1.111       .  S
C2337      H2343   1.078       .  S
C2337      C2338   1.380       .  D
C2339      H2344   1.088       .  S
C2339      C2340   1.356       .  D
C2340      C2389   1.478       .  S
C2345      C2346   1.552       .  S
C2345      C2351   1.540       .  S
C2345      C2349   1.546       .  S
C2345      C2373   1.563       .  S
C2346      H2353   1.087       .  S
C2346      C2347   1.366       .  D
C2347      C2348   1.531       .  S
C2347      C2386   1.488       .  S
C2348      C2352   1.551       .  S
C2348      C2350   1.557       .  S
C2348      H2354   1.111       .  S
C2349      H2355   1.081       .  S
C2349      C2350   1.379       .  D
C2351      H2356   1.079       .  S
C2351      C2352   1.358       .  D
C2357      C2358   1.529       .  S
C2357      C2363   1.534       .  S
C2357      C2361   1.579       .  S
C2357      C2370   1.560       .  S
C2358      H2365   1.088       .  S
C2358      C2359   1.348       .  D
C2359      C2360   1.539       .  S
C2359      C2405   1.472       .  S
C2360      C2364   1.550       .  S
C2360      C2362   1.529       .  S
C2360      H2366   1.095       .  S
C2361      H2367   1.080       .  S
C2361      C2362   1.390       .  D
C2363      H2368   1.086       .  S
C2363      C2364   1.372       .  D
C2364      C2437   1.517       .  S
C2369      C2370   1.419       .  A
C2369      C2374   1.412       .  A
C2369      H2376   1.083       .  S
C2370      C2371   1.414       .  A
C2371      C2378   1.510       .  S
C2371      C2372   1.417       .  A
C2372      C2373   1.421       .  A
C2372      H2377   1.076       .  S
C2373      C2374   1.420       .  A
C2374      C2375   1.519       .  S
C2375      F2379   1.378       .  S
C2375      F2380   1.384       .  S
C2375      F2381   1.384       .  S
C2378      F2382   1.383       .  S
C2378      F2383   1.382       .  S
C2378      F2384   1.385       .  S
C2385      C2386   1.403       .  A
C2385      C2390   1.409       .  A
C2385      H2392   1.079       .  S
C2386      C2387   1.416       .  A
C2387      C2394   1.506       .  S
C2387      C2388   1.402       .  A
C2388      C2389   1.396       .  A
C2388      H2393   1.083       .  S
C2389      C2390   1.414       .  A
C2390      C2391   1.513       .  S
C2391      F2395   1.380   1_556  S
C2391      F2396   1.384   1_556  S
C2391      F2397   1.382       .  S
C2394      F2398   1.380       .  S
C2394      F2399   1.373       .  S
C2394      F2400   1.385       .  S
C2401      C2402   1.393       .  A
C2401      C2406   1.397       .  A
C2401      H2408   1.084       .  S
C2402      C2403   1.414       .  A
C2403      C2410   1.520       .  S
C2403      C2404   1.401       .  A
C2404      C2405   1.401       .  A
C2404      H2409   1.084       .  S
C2405      C2406   1.418       .  A
C2406      C2407   1.513       .  S
C2407      F2411   1.385       .  S
C2407      F2412   1.383       .  S
C2407      F2413   1.367       .  S
C2410      F2414   1.382       .  S
C2410      F2415   1.380       .  S
C2410      F2416   1.382       .  S
C2417      C2418   1.413       .  A
C2417      C2422   1.413       .  A
C2417      H2424   1.081       .  S
C2418      C2419   1.415       .  A
C2419      C2426   1.512       .  S
C2419      C2420   1.425       .  A
C2420      C2421   1.428       .  A
C2420      H2425   1.074       .  S
C2421      C2422   1.435       .  A
C2422      C2423   1.526       .  S
C2423      F2427   1.385       .  S
C2423      F2428   1.381       .  S
C2423      F2429   1.380       .  S
C2426      F2430   1.385       .  S
C2426      F2431   1.382       .  S
C2426      F2432   1.384       .  S
C2433      C2434   1.409       .  A
C2433      C2438   1.408       .  A
C2433      H2440   1.076       .  S
C2434      C2435   1.414       .  A
C2435      C2442   1.515       .  S
C2435      C2436   1.408       .  A
C2436      C2437   1.415       .  A
C2436      H2441   1.084       .  S
C2437      C2438   1.425       .  A
C2438      C2439   1.519       .  S
C2439      F2443   1.385       .  S
C2439      F2444   1.376       .  S
C2439      F2445   1.383       .  S
C2442      F2446   1.383       .  S
C2442      F2447   1.383       .  S
C2442      F2448   1.384       .  S
C2449      C2450   1.409       .  A
C2449      C2454   1.420       .  A
C2449      H2456   1.084       .  S
C2450      C2451   1.412       .  A
C2451      C2458   1.512       .  S
C2451      C2452   1.395       .  A
C2452      C2453   1.402       .  A
C2452      H2457   1.074       .  S
C2453      C2454   1.421       .  A
C2454      C2455   1.515       .  S
C2455      F2459   1.384       .  S
C2455      F2460   1.383       .  S
C2455      F2461   1.382       .  S
C2458      F2464   1.380       .  S
C2465      C2466   1.411       .  A
C2465      C2470   1.428       .  A
C2465      H2472   1.070       .  S
C2466      C2467   1.448       .  A
C2467      C2474   1.524       .  S
C2467      C2468   1.422       .  A
C2468      C2469   1.408       .  A
C2468      H2473   1.078       .  S
C2469      C2470   1.443       .  A
C2470      C2471   1.525       .  S
C2471      F2475   1.385       .  S
C2471      F2476   1.381       .  S
C2471      F2477   1.380       .  S
C2474      F2478   1.386       .  S
C2474      F2479   1.384       .  S
C2474      F2480   1.360       .  S
C2481      C2482   1.399       .  A
C2481      C2486   1.401       .  A
C2481      H2488   1.083       .  S
C2482      C2483   1.416       .  A
C2483      C2490   1.514       .  S
C2483      C2484   1.410       .  A
C2484      C2485   1.406       .  A
C2484      H2489   1.085       .  S
C2485      C2486   1.430       .  A
C2486      C2487   1.520       .  S
C2487      F2491   1.383       .  S
C2487      F2492   1.367       .  S
C2487      F2493   1.381       .  S
C2490      F2496   1.382       .  S
C2497      C2498   1.398       .  A
C2497      C2502   1.399       .  A
C2497      H2504   1.078       .  S
C2498      C2499   1.409       .  A
C2499      C2506   1.516       .  S
C2499      C2500   1.392       .  A
C2500      C2501   1.407       .  A
C2500      H2505   1.085       .  S
C2501      C2502   1.423       .  A
C2502      C2503   1.520       .  S
C2503      F2507   1.372       .  S
C2503      F2508   1.382       .  S
C2503      F2509   1.385       .  S
C2506      F2510   1.383       .  S
C2506      F2511   1.383       .  S
C2506      F2512   1.384       .  S
C2513      C2514   1.412       .  A
C2513      C2518   1.410       .  A
C2513      H2520   1.084       .  S
C2514      C2515   1.433       .  A
C2515      C2522   1.521       .  S
C2515      C2516   1.408       .  A
C2516      C2517   1.400       .  A
C2516      H2521   1.080       .  S
C2517      C2518   1.416       .  A
C2518      C2519   1.516       .  S
C2519      F2523   1.384       .  S
C2519      F2524   1.382       .  S
C2519      F2525   1.382       .  S
C2522      F2526   1.383       .  S
C2522      F2527   1.371       .  S
C2522      F2528   1.386       .  S
C2529      C2530   1.400       .  A
C2529      C2534   1.400       .  A
C2529      H2536   1.085       .  S
C2530      C2531   1.416       .  A
C2531      C2538   1.519       .  S
C2531      C2532   1.393       .  A
C2532      C2533   1.396       .  A
C2532      H2537   1.086       .  S
C2533      C2534   1.416       .  A
C2534      C2535   1.516       .  S
C2535      F2539   1.381       .  S
C2535      F2540   1.383       .  S
C2535      F2541   1.379       .  S
C2538      F2542   1.385       .  S
C2538      F2543   1.376       .  S
C2538      F2544   1.377       .  S
C2545      C2546   1.403       .  A
C2545      C2550   1.415       .  A
C2545      H2552   1.081       .  S
C2546      C2547   1.425       .  A
C2547      C2554   1.512       .  S
C2547      C2548   1.424       .  A
C2548      C2549   1.413       .  A
C2548      H2553   1.080       .  S
C2549      C2550   1.454       .  A
C2550      C2551   1.545       .  S
C2551      F2555   1.377       .  S
C2551      F2556   1.375       .  S
C2551      F2557   1.386       .  S
C2554      F2558   1.383       .  S
C2554      F2559   1.384       .  S
C2554      F2560   1.385       .  S
C2561      C2562   1.400       .  A
C2561      C2566   1.418       .  A
C2561      H2568   1.083       .  S
C2562      C2563   1.430       .  A
C2563      C2570   1.515       .  S
C2563      C2564   1.424       .  A
C2564      C2565   1.409       .  A
C2564      H2569   1.082       .  S
C2565      C2566   1.455       .  A
C2566      C2567   1.540       .  S
C2567      F2571   1.376       .  S
C2567      F2572   1.379       .  S
C2567      F2573   1.385       .  S
C2570      F2574   1.384       .  S
C2570      F2575   1.383       .  S
C2570      F2576   1.384       .  S
C2577      C2578   1.398       .  A
C2577      C2582   1.404       .  A
C2577      H2584   1.083       .  S
C2578      C2579   1.421       .  A
C2579      C2586   1.525       .  S
C2579      C2580   1.398       .  A
C2580      C2581   1.406       .  A
C2580      H2585   1.083       .  S
C2581      C2582   1.423       .  A
C2582      C2583   1.517       .  S
C2583      F2587   1.385   1_556  S
C2583      F2588   1.373       .  S
C2583      F2589   1.382       .  S
C2586      F2590   1.381       .  S
C2586      F2591   1.381       .  S
C2586      F2592   1.385       .  S
C2593      C2594   1.407       .  A
C2593      C2598   1.405       .  A
C2593      H2600   1.084       .  S
C2594      C2595   1.418       .  A
C2595      C2602   1.518       .  S
C2595      C2596   1.389       .  A
C2596      C2597   1.392       .  A
C2596      H2601   1.086       .  S
C2597      C2598   1.409       .  A
C2598      C2599   1.517       .  S
C2599      F2603   1.380       .  S
C2599      F2604   1.383       .  S
C2599      F2605   1.384       .  S
C2602      F2606   1.381       .  S
C2602      F2607   1.372       .  S
C2602      F2608   1.384       .  S
C2609      C2610   1.424       .  A
C2609      C2614   1.423       .  A
C2609      H2616   1.078       .  S
C2610      C2611   1.431       .  A
C2611      C2618   1.522       .  S
C2611      C2612   1.419       .  A
C2612      C2613   1.421       .  A
C2612      H2617   1.077       .  S
C2613      C2614   1.426       .  A
C2614      C2615   1.517       .  S
C2615      F2619   1.385       .  S
C2615      F2620   1.382       .  S
C2615      F2621   1.382       .  S
C2618      F2622   1.382       .  S
C2618      F2623   1.386       .  S
C2618      F2624   1.381       .  S
C2625      C2626   1.397       .  A
C2625      C2630   1.411       .  A
C2625      H2632   1.070       .  S
C2626      C2627   1.413       .  A
C2627      C2634   1.514       .  S
C2627      C2628   1.405       .  A
C2628      C2629   1.416       .  A
C2628      H2633   1.081       .  S
C2629      C2630   1.436       .  A
C2630      C2631   1.519       .  S
C2631      F2635   1.385       .  S
C2631      F2636   1.383       .  S
C2631      F2637   1.382       .  S
C2634      F2638   1.384       .  S
C2634      F2639   1.383       .  S
C2634      F2640   1.384       .  S
C2641      C2642   1.397       .  A
C2641      C2646   1.398       .  A
C2641      H2648   1.083       .  S
C2642      C2643   1.414       .  A
C2643      C2650   1.517       .  S
C2643      C2644   1.414       .  A
C2644      H2649   1.083       .  S
C2647      F2652   1.375   1_554  S
C2647      F2653   1.380   1_554  S
C2650      F2654   1.381       .  S
C2650      F2655   1.383       .  S
C2650      F2656   1.384       .  S
C2657      C2658   1.417       .  A
C2657      C2662   1.413       .  A
C2657      H2664   1.081       .  S
C2658      C2659   1.420       .  A
C2659      C2666   1.514       .  S
C2659      C2660   1.428       .  A
C2660      C2661   1.428       .  A
C2660      H2665   1.072       .  S
C2661      C2662   1.435       .  A
C2662      C2663   1.529       .  S
C2663      F2667   1.381       .  S
C2663      F2668   1.375       .  S
C2663      F2669   1.386       .  S
C2666      F2670   1.383       .  S
C2666      F2671   1.382       .  S
C2666      F2672   1.385       .  S
C2673      C2678   1.403       .  A
C2673      H2680   1.082       .  S
C2675      C2676   1.421       .  A
C2676      C2677   1.411       .  A
C2676      H2681   1.083       .  S
C2677      C2678   1.441       .  A
C2678      C2679   1.532       .  S
C2679      F2683   1.385       .  S
C2679      F2684   1.372       .  S
C2679      F2685   1.381       .  S
C2682      F2686   1.384   1_556  S
C2682      F2687   1.382       .  S
C2689      C2690   1.400       .  A
C2689      C2694   1.396       .  A
C2689      H2696   1.083       .  S
C2690      C2691   1.410       .  A
C2691      C2698   1.513       .  S
C2691      C2692   1.401       .  A
C2692      C2693   1.400       .  A
C2692      H2697   1.081       .  S
C2693      C2694   1.414       .  A
C2694      C2695   1.520       .  S
C2695      F2699   1.385       .  S
C2695      F2700   1.382       .  S
C2695      F2701   1.376       .  S
C2698      F2702   1.379       .  S
C2698      F2703   1.381       .  S
C2698      F2704   1.384       .  S
C2705      C2706   1.404       .  A
C2705      C2710   1.409       .  A
C2705      H2712   1.079       .  S
C2706      C2707   1.428       .  A
C2707      C2714   1.521       .  S
C2707      C2708   1.407       .  A
C2708      C2709   1.412       .  A
C2708      H2713   1.077       .  S
C2709      C2710   1.428       .  A
C2710      C2711   1.514       .  S
C2711      F2715   1.385       .  S
C2711      F2716   1.384       .  S
C2711      F2717   1.384       .  S
C2714      F2718   1.385       .  S
C2714      F2719   1.383       .  S
C2714      F2720   1.385       .  S
C2721      C2722   1.398       .  A
C2721      C2726   1.407       .  A
C2721      H2728   1.083       .  S
C2722      C2723   1.421       .  A
C2723      C2730   1.521       .  S
C2723      C2724   1.392       .  A
C2724      C2725   1.397       .  A
C2724      H2729   1.080       .  S
C2725      C2726   1.418       .  A
C2726      C2727   1.506       .  S
C2727      F2731   1.381       .  S
C2727      F2732   1.385       .  S
C2727      F2733   1.379       .  S
C2730      F2734   1.383       .  S
C2730      F2735   1.384       .  S
C2730      F2736   1.376       .  S
C2737      C2738   1.417       .  A
C2737      C2742   1.410       .  A
C2737      H2744   1.081       .  S
C2738      C2739   1.419       .  A
C2739      C2746   1.516       .  S
C2739      C2740   1.418       .  A
C2740      C2741   1.421       .  A
C2740      H2745   1.070       .  S
C2741      C2742   1.430       .  A
C2742      C2743   1.530       .  S
C2743      F2747   1.385       .  S
C2743      F2748   1.378       .  S
C2743      F2749   1.381       .  S
C2746      F2750   1.382       .  S
C2746      F2751   1.382       .  S
C2746      F2752   1.385       .  S
C2753      C2754   1.423       .  A
C2753      C2758   1.423       .  A
C2753      H2760   1.074       .  S
C2754      C2755   1.428       .  A
C2755      C2762   1.520       .  S
C2755      C2756   1.416       .  A
C2756      C2757   1.417       .  A
C2756      H2761   1.082       .  S
C2757      C2758   1.422       .  A
C2758      C2759   1.513       .  S
C2759      F2763   1.385       .  S
C2759      F2764   1.382       .  S
C2759      F2765   1.383       .  S
C2762      F2766   1.381       .  S
C2762      F2767   1.382       .  S
C2762      F2768   1.385       .  S
C2769      C2770   1.400       .  A
C2769      C2774   1.402       .  A
C2769      H2776   1.084       .  S
C2770      C2771   1.415       .  A
C2771      C2778   1.517       .  S
C2771      C2772   1.401       .  A
C2772      C2773   1.401       .  A
C2772      H2777   1.084       .  S
C2773      C2774   1.414       .  A
C2774      C2775   1.517       .  S
C2775      F2779   1.383       .  S
C2775      F2780   1.380       .  S
C2775      F2781   1.381   1_556  S
C2778      F2782   1.382       .  S
C2778      F2783   1.374       .  S
C2778      F2784   1.385       .  S
C2785      C2786   1.398       .  A
C2785      C2790   1.399       .  A
C2785      H2792   1.084       .  S
C2786      C2787   1.412       .  A
C2787      C2794   1.505       .  S
C2787      C2788   1.396       .  A
C2788      C2789   1.394       .  A
C2788      H2793   1.083       .  S
C2789      C2790   1.416       .  A
C2790      C2791   1.510       .  S
C2791      F2795   1.379       .  S
C2791      F2796   1.385       .  S
C2791      F2797   1.380       .  S
C2794      F2798   1.384       .  S
C2794      F2799   1.383       .  S
C2794      F2800   1.372       .  S
C2801      C2802   1.425       .  A
C2801      C2806   1.426       .  A
C2801      H2808   1.071       .  S
C2802      C2803   1.430       .  A
C2803      C2810   1.523       .  S
C2803      C2804   1.416       .  A
C2804      C2805   1.419       .  A
C2804      H2809   1.077       .  S
C2805      C2806   1.427       .  A
C2806      C2807   1.518       .  S
C2807      F2811   1.385       .  S
C2807      F2812   1.383       .  S
C2807      F2813   1.382       .  S
C2810      F2814   1.381       .  S
C2810      F2815   1.385       .  S
C2810      F2816   1.381       .  S
C2817      C2818   1.416       .  A
C2817      C2822   1.410       .  A
C2817      H2824   1.083       .  S
C2818      C2819   1.436       .  A
C2819      C2826   1.521       .  S
C2819      C2820   1.405       .  A
C2820      C2821   1.399       .  A
C2820      H2825   1.077       .  S
C2821      C2822   1.414       .  A
C2822      C2823   1.516       .  S
C2823      F2827   1.384       .  S
C2826      F2830   1.379       .  S
C2826      F2831   1.384       .  S
C2826      F2832   1.385       .  S
C2833      C2834   1.415       .  A
C2833      C2838   1.425       .  A
C2833      H2840   1.084       .  S
C2834      C2835   1.435       .  A
C2835      C2842   1.530       .  S
C2835      C2836   1.399       .  A
C2836      C2837   1.402       .  A
C2836      H2841   1.079       .  S
C2837      C2838   1.419       .  A
C2838      C2839   1.516       .  S
C2839      F2843   1.383       .  S
C2839      F2844   1.382       .  S
C2839      F2845   1.382       .  S
C2842      F2846   1.367       .  S
C2842      F2847   1.382       .  S
C2842      F2848   1.386       .  S
C2849      C2850   1.416       .  A
C2849      C2854   1.410       .  A
C2849      H2856   1.079       .  S
C2850      C2851   1.420       .  A
C2851      C2858   1.511       .  S
C2851      C2852   1.426       .  A
C2852      C2853   1.423       .  A
C2852      H2857   1.075       .  S
C2853      C2854   1.430       .  A
C2854      C2855   1.526       .  S
C2855      F2859   1.382       .  S
C2855      F2860   1.385       .  S
C2855      F2861   1.381       .  S
C2858      F2862   1.383       .  S
C2858      F2863   1.381       .  S
C2858      F2864   1.386       .  S
C2865      C2866   1.415       .  A
C2865      C2870   1.412       .  A
C2865      H2872   1.084       .  S
C2866      C2867   1.433       .  A
C2867      C2874   1.514       .  S
C2867      C2868   1.408       .  A
C2868      C2869   1.397       .  A
C2868      H2873   1.078       .  S
C2869      C2870   1.414       .  A
C2870      C2871   1.515       .  S
C2871      F2875   1.384       .  S
C2874      F2878   1.368       .  S
C2874      F2879   1.384       .  S
C2874      F2880   1.378       .  S
C2881      C2882   1.394       .  A
C2881      C2886   1.394       .  A
C2881      H2888   1.084       .  S
C2882      C2883   1.415       .  A
C2883      C2890   1.521       .  S
C2883      C2884   1.402       .  A
C2884      C2885   1.407       .  A
C2884      H2889   1.084       .  S
C2885      C2886   1.408       .  A
C2886      C2887   1.502       .  S
C2887      F2891   1.383       .  S
C2887      F2892   1.375       .  S
C2887      F2893   1.383       .  S
C2890      F2894   1.384       .  S
C2890      F2895   1.382       .  S
C2890      F2896   1.384       .  S
C2897      C2898   1.403       .  A
C2897      C2902   1.415       .  A
C2897      H2904   1.078       .  S
C2898      C2899   1.416       .  A
C2899      C2906   1.515       .  S
C2899      C2900   1.406       .  A
C2900      C2901   1.410       .  A
C2900      H2905   1.084       .  S
C2901      C2902   1.432       .  A
C2902      C2903   1.518       .  S
C2903      F2907   1.385       .  S
C2903      F2908   1.373       .  S
C2903      F2909   1.383       .  S
C2906      F2910   1.383       .  S
C2906      F2911   1.382       .  S
C2906      F2912   1.384       .  S
C2913      C2914   1.397       .  A
C2913      C2918   1.401       .  A
C2913      H2920   1.081       .  S
C2914      C2915   1.418       .  A
C2915      C2922   1.520       .  S
C2915      C2916   1.402       .  A
C2916      C2917   1.402       .  A
C2916      H2921   1.084       .  S
C2917      C2918   1.410       .  A
C2918      C2919   1.510       .  S
C2919      F2923   1.381       .  S
C2919      F2924   1.382       .  S
C2919      F2925   1.384       .  S
C2922      F2926   1.382       .  S
C2922      F2927   1.385       .  S
C2922      F2928   1.377       .  S
C2929      C2930   1.412       .  A
C2929      C2934   1.422       .  A
C2929      H2936   1.079       .  S
C2930      C2931   1.448       .  A
C2931      C2938   1.535       .  S
C2931      C2932   1.414       .  A
C2932      C2933   1.404       .  A
C2932      H2937   1.084       .  S
C2933      C2934   1.426       .  A
C2934      C2935   1.513       .  S
C2935      F2939   1.385       .  S
C2935      F2940   1.384       .  S
C2935      F2941   1.383       .  S
C2938      F2942   1.374       .  S
C2938      F2943   1.386       .  S
C2938      F2944   1.383       .  S
C2945      C2946   1.409       .  A
C2945      C2950   1.415       .  A
C2945      H2952   1.079       .  S
C2946      C2947   1.449       .  A
C2947      C2954   1.520       .  S
C2947      C2948   1.426       .  A
C2948      C2949   1.403       .  A
C2948      H2953   1.076       .  S
C2949      C2950   1.439       .  A
C2950      C2951   1.528       .  S
C2951      F2955   1.385       .  S
C2951      F2956   1.380       .  S
C2951      F2957   1.382       .  S
C2954      F2958   1.383       .  S
C2954      F2959   1.386       .  S
C2954      F2960   1.379       .  S
C2961      C2962   1.395       .  A
C2961      C2966   1.405       .  A
C2961      H2968   1.081       .  S
C2962      C2963   1.417       .  A
C2963      C2970   1.517       .  S
C2963      C2964   1.402       .  A
C2964      C2965   1.401       .  A
C2964      H2969   1.084       .  S
C2965      C2966   1.423       .  A
C2966      C2967   1.511   1_556  S
C2967      F2971   1.385       .  S
C2967      F2972   1.379       .  S
C2967      F2973   1.369       .  S
C2970      F2974   1.385       .  S
C2970      F2975   1.376       .  S
C2970      F2976   1.378       .  S
C2977      C2978   1.398       .  A
C2977      C2982   1.392       .  A
C2977      H2984   1.083       .  S
C2978      C2979   1.429       .  A
C2979      C2986   1.522       .  S
C2979      C2980   1.396       .  A
C2980      C2981   1.397       .  A
C2980      H2985   1.085       .  S
C2981      C2982   1.405       .  A
C2982      C2983   1.504       .  S
C2983      F2987   1.375       .  S
C2983      F2988   1.383       .  S
C2983      F2989   1.383       .  S
C2986      F2990   1.382       .  S
C2986      F2991   1.371       .  S
C2986      F2992   1.384       .  S
C2993      C2994   1.405       .  A
C2993      C2998   1.417       .  A
C2993      H3000   1.081       .  S
C2994      C2995   1.425       .  A
C2995      C3002   1.514       .  S
C2995      C2996   1.417       .  A
C2996      C2997   1.410       .  A
C2996      H3001   1.078       .  S
C2997      C2998   1.448       .  A
C2998      C2999   1.534       .  S
C2999      F3003   1.386       .  S
C2999      F3004   1.383       .  S
C2999      F3005   1.376       .  S
C3002      F3006   1.384       .  S
C3002      F3007   1.382       .  S
C3002      F3008   1.385       .  S
C3009      C3010   1.412       .  A
C3009      C3014   1.415       .  A
C3009      H3016   1.083       .  S
C3010      C3011   1.422       .  A
C3011      C3018   1.519       .  S
C3011      C3012   1.396       .  A
C3015      F3020   1.385       .  S
C3015      F3021   1.382   1_554  S
C3018      F3022   1.371       .  S
C3018      F3023   1.379       .  S
C3018      F3024   1.385       .  S
C3025      C3026   1.412       .  A
C3025      C3030   1.423       .  A
C3025      H3032   1.083       .  S
C3026      C3027   1.418       .  A
C3027      C3034   1.508       .  S
C3027      C3028   1.388       .  A
C3028      C3029   1.395       .  A
C3028      H3033   1.079       .  S
C3029      C3030   1.415       .  A
C3030      C3031   1.513       .  S
C3031      F3035   1.384       .  S
C3031      F3036   1.383       .  S
C3031      F3037   1.383       .  S
C3034      F3038   1.375       .  S
C3034      F3039   1.377       .  S
C3034      F3040   1.386       .  S
C3041      C3042   1.417       .  A
C3041      C3046   1.410       .  A
C3041      H3048   1.080       .  S
C3042      C3043   1.421       .  A
C3043      C3050   1.511       .  S
C3043      C3044   1.423       .  A
C3044      C3045   1.421       .  A
C3044      H3049   1.075       .  S
C3045      C3046   1.426       .  A
C3046      C3047   1.522       .  S
C3047      F3051   1.386       .  S
C3047      F3052   1.382       .  S
C3047      F3053   1.381       .  S
C3050      F3054   1.383       .  S
C3050      F3055   1.382       .  S
C3050      F3056   1.385       .  S
C3057      C3058   1.408       .  A
C3057      C3062   1.415       .  A
C3057      H3064   1.083       .  S
C3058      C3059   1.412       .  A
C3059      C3066   1.515       .  S
C3059      C3060   1.392       .  A
C3063      F3068   1.381       .  S
C3063      F3069   1.383   1_554  S
C3066      F3070   1.382       .  S
C3066      F3071   1.385       .  S
C3066      F3072   1.379       .  S
C3073      C3074   1.405       .  A
C3073      C3078   1.403       .  A
C3073      H3080   1.081       .  S
C3074      C3075   1.408       .  A
C3075      C3082   1.503       .  S
C3075      C3076   1.390       .  A
C3076      C3077   1.395       .  A
C3076      H3081   1.083       .  S
C3077      C3078   1.427       .  A
C3078      C3079   1.527       .  S
C3079      F3083   1.385       .  S
C3079      F3084   1.379       .  S
C3079      F3085   1.382       .  S
C3082      F3086   1.376       .  S
C3082      F3087   1.380       .  S
C3082      F3088   1.383       .  S
C3089      C3090   1.398       .  A
C3089      C3094   1.407       .  A
C3089      H3096   1.078       .  S
C3090      C3091   1.415       .  A
C3091      C3098   1.516       .  S
C3091      C3092   1.405       .  A
C3092      C3093   1.412       .  A
C3092      H3097   1.083       .  S
C3093      C3094   1.437       .  A
C3094      C3095   1.521       .  S
C3095      F3099   1.386       .  S
C3095      F3100   1.374       .  S
C3095      F3101   1.382       .  S
C3098      F3102   1.384       .  S
C3098      F3103   1.383       .  S
C3098      F3104   1.383       .  S
C3105      C3106   1.396       .  A
C3105      C3110   1.398       .  A
C3105      H3112   1.083       .  S
C3106      C3107   1.418       .  A
C3107      C3114   1.517       .  S
C3107      C3108   1.406       .  A
C3108      C3109   1.403       .  A
C3108      H3113   1.080       .  S
C3109      C3110   1.417       .  A
C3110      C3111   1.512       .  S
C3111      F3115   1.382       .  S
C3111      F3116   1.370       .  S
C3111      F3117   1.385       .  S
C3114      F3118   1.383       .  S
C3114      F3119   1.379       .  S
C3114      F3120   1.383       .  S
C3121      C3122   1.406       .  A
C3121      C3126   1.412       .  A
C3121      H3128   1.078       .  S
C3122      C3123   1.455       .  A
C3123      C3130   1.540       .  S
C3123      C3124   1.421       .  A
C3124      C3125   1.403       .  A
C3124      H3129   1.081       .  S
C3125      C3126   1.427       .  A
C3126      C3127   1.515       .  S
C3127      F3131   1.385       .  S
C3127      F3132   1.384       .  S
C3127      F3133   1.384       .  S
C3130      F3134   1.376       .  S
C3130      F3135   1.385       .  S
C3130      F3136   1.376       .  S
