geometry optimzed in LAMMPS
_audit_creation_date              2020-11-30 
_audit_creation_method            'lammps2cif' 
_symmetry_space_group_name_H-M    'P1' 
_symmetry_Int_Tables_number       1 
_symmetry_cell_setting            triclinic 
loop_ 
_symmetry_equiv_pos_as_xyz 
  x,y,z 
_cell_length_a                    78.52801514 
_cell_length_b                    78.35021319590581 
_cell_length_c                    78.13411749329863 
_cell_angle_alpha                 90.0721016399036 
_cell_angle_beta                  90.19646220199324 
_cell_angle_gamma                 89.41791181954984 
loop_ 
_atom_site_label 
_atom_site_type_symbol 
_atom_site_fract_x 
_atom_site_fract_y 
_atom_site_fract_z 
_atom_site_charge 
In1        In  0.73972195  0.87746693  0.16373038     1.36900
C2          C  0.76188101  0.90086015  0.15236249     0.77300
O3          O  0.73773575  0.89379077  0.18739145    -0.61100
O4          O  0.74838089  0.86872372  0.18929979    -0.52000
C5          C  0.70690075  0.86916318  0.15871394     0.70000
O6          O  0.71332838  0.87196689  0.17317456    -0.46900
C7          C  0.75257346  0.84848219  0.15249784     0.74700
O8          O  0.74601974  0.90410925  0.15314418    -0.58800
O9          O  0.74955671  0.85134830  0.16808567    -0.48900
O10         O  0.76576925  0.88588232  0.15670632    -0.55200
C11         C  0.74415609  0.88232411  0.19691634     0.84900
O12         O  0.71646198  0.87329330  0.14644492    -0.57100
O13         O  0.74851078  0.86041524  0.14238367    -0.60400
In14       In  0.73936212  0.88708132  0.35776107     1.36900
C15         C  0.71795434  0.91374383  0.36355672     0.77300
O16         O  0.74755877  0.90139627  0.33420797    -0.61100
O17         O  0.74399931  0.87454697  0.33272069    -0.52000
C18         C  0.76908416  0.87661018  0.37174218     0.70000
O19         O  0.76813166  0.88821504  0.36060063    -0.46900
C20         C  0.71774783  0.86165653  0.36147886     0.74700
O21         O  0.71622924  0.90263530  0.35213481    -0.58800
O22         O  0.72470762  0.86531379  0.34748117    -0.48900
O23         O  0.73149136  0.91185318  0.37229015    -0.55200
C24         C  0.74744203  0.88815060  0.32491800     0.84900
O25         O  0.75482889  0.87243641  0.37768295    -0.57100
O26         O  0.72222732  0.87084403  0.37399523    -0.60400
C27         C  0.60653198  0.02118602  0.40180364     0.86200
C28         C  0.59169486  0.00846468  0.40251308    -0.54000
C29         C  0.59052680  0.99744383  0.38880427     0.09100
C30         C  0.60489825  0.00047281  0.37544329     0.20100
C31         C  0.62239155  0.00960756  0.39951384    -0.54700
C32         C  0.62185818  0.99880957  0.38567427     0.09200
C33         C  0.60442121  0.03019314  0.38448287    -0.54300
C34         C  0.60357317  0.01960749  0.37059880     0.09800
H35         H  0.58316557  0.00814535  0.41338039     0.14300
H36         H  0.60409529  0.99220149  0.36400947     0.00100
H37         H  0.63293495  0.00938351  0.40837993     0.14600
H38         H  0.60423498  0.04400847  0.38333938     0.14400
C39         C  0.86855146  0.00867751  0.11169592     0.86200
C40         C  0.88426806  0.99675129  0.11184170    -0.54000
C41         C  0.88593604  0.98656157  0.12609534     0.09100
C42         C  0.87118310  0.98942469  0.13909524     0.20100
C43         C  0.85338888  0.99656112  0.11441273    -0.54700
C44         C  0.85470519  0.98646717  0.12862685     0.09200
C45         C  0.86971519  0.01864281  0.12850150    -0.54300
C46         C  0.87105947  0.00889018  0.14293709     0.09800
H47         H  0.89304784  0.99623487  0.10116055     0.14300
H48         H  0.87211807  0.98146502  0.15079566     0.00100
H49         H  0.84256344  0.99548752  0.10590395     0.14600
H50         H  0.86891453  0.03248994  0.12889446     0.14400
In51       In  0.64208559  0.11257156  0.24939753     1.36900
C52         C  0.62444304  0.08737588  0.26500220     0.77300
O53         O  0.66593648  0.09969262  0.23978346    -0.61100
O54         O  0.66560607  0.10891338  0.26541260    -0.52000
C55         C  0.63398791  0.12551377  0.21811892     0.70000
O56         O  0.62362519  0.12502956  0.23033401    -0.46900
C57         C  0.64278561  0.14149779  0.26740715     0.74700
O58         O  0.62127280  0.10299969  0.26668889    -0.58800
O59         O  0.65574799  0.13546698  0.26003346    -0.48900
O60         O  0.63552131  0.08428729  0.25374043    -0.55200
C61         C  0.67414629  0.10199133  0.25354624     0.84900
O62         O  0.64766792  0.11768550  0.22126324    -0.57100
O63         O  0.62950985  0.13288959  0.26528852    -0.60400
In64       In  0.83344334  0.11116681  0.26062669     1.36900
C65         C  0.84883244  0.08541727  0.24353215     0.77300
O66         O  0.81073681  0.09877641  0.27286042    -0.61100
O67         O  0.80851030  0.10769442  0.24723406    -0.52000
C68         C  0.84247242  0.12412154  0.29135375     0.70000
O69         O  0.85290372  0.11600545  0.28205915    -0.46900
C70         C  0.83518721  0.13942711  0.24206463     0.74700
O71         O  0.85082675  0.10094440  0.24021098    -0.58800
O72         O  0.82133636  0.13239441  0.24576500    -0.48900
O73         O  0.84013969  0.08284823  0.25683744    -0.55200
C74         C  0.80124738  0.10097546  0.25990310     0.84900
O75         O  0.82757050  0.12445786  0.28546588    -0.57100
O76         O  0.84821225  0.13223032  0.24829992    -0.60400
In77       In  0.86685293  0.75373965  0.35455784     1.36900
C78         C  0.85664129  0.78427473  0.36743252     0.77300
O79         O  0.88230031  0.76045995  0.33129526    -0.61100
O80         O  0.85624705  0.75376871  0.32823704    -0.52000
C81         C  0.89477635  0.73467544  0.36151598     0.70000
O82         O  0.89081228  0.74748512  0.37066319    -0.46900
C83         C  0.84196934  0.73149998  0.35943108     0.74700
O84         O  0.86573405  0.78274287  0.35426954    -0.58800
O85         O  0.84219757  0.74176743  0.34705858    -0.48900
O86         O  0.85458484  0.77039401  0.37524585    -0.55200
C87         C  0.87010594  0.75754544  0.32110209     0.84900
O88         O  0.88479915  0.73226017  0.34918949    -0.57100
O89         O  0.85406258  0.73324509  0.36994044    -0.60400
In90       In  0.87284537  0.74820465  0.15888422     1.36900
C91         C  0.89740663  0.76992924  0.14941988     0.77300
O92         O  0.85646585  0.76251237  0.13989226    -0.61100
O93         O  0.84669380  0.75718595  0.16464881    -0.52000
C94         C  0.86561632  0.71619996  0.14895895     0.70000
O95         O  0.86350469  0.72893993  0.13935537    -0.46900
C96         C  0.87517339  0.74850733  0.19283884     0.74700
O97         O  0.89846692  0.75409704  0.14613564    -0.58800
O98         O  0.86138736  0.75025450  0.18471645    -0.48900
O99         O  0.88405199  0.77415188  0.15724308    -0.55200
C100        C  0.84416145  0.76386918  0.15019169     0.84900
O101        O  0.87403566  0.71944798  0.16230031    -0.57100
O102        O  0.88813635  0.74625424  0.18351076    -0.60400
C103        C  0.00207284  0.62461870  0.40389681     0.86200
C104        C  0.01054046  0.62085755  0.38660233    -0.54000
C105        C  0.99963844  0.62031470  0.37296680     0.09100
C106        C  0.98075234  0.62313719  0.37802168     0.20100
C107        C  0.99169649  0.64113316  0.40094843    -0.54700
C108        C  0.98032264  0.64053863  0.38755219     0.09200
C109        C  0.98856670  0.61055189  0.40545390    -0.54300
C110        C  0.97722934  0.60974229  0.39212882     0.09800
H111        H  0.02423511  0.61943869  0.38514995     0.14300
H112        H  0.97182739  0.62224499  0.36706810     0.00100
H113        H  0.99346757  0.65235207  0.40887791     0.14600
H114        H  0.98821613  0.60136469  0.41574799     0.14400
C115        C  0.00333725  0.88006845  0.10779616     0.86200
C116        C  0.01246054  0.88163795  0.12519694    -0.54000
C117        C  0.00204983  0.88118603  0.13913716     0.09100
C118        C  0.98295041  0.87998101  0.13435073     0.20100
C119        C  0.99247277  0.86391008  0.10936448    -0.54700
C120        C  0.98166199  0.86372430  0.12310492     0.09200
C121        C  0.99022697  0.89495468  0.10805177    -0.54300
C122        C  0.97948627  0.89520153  0.12197708     0.09800
H123        H  0.02621724  0.88227350  0.12643766     0.14300
H124        H  0.97469670  0.87982581  0.14582233     0.00100
H125        H  0.99313850  0.85362199  0.10006383     0.14600
H126        H  0.98953242  0.90454430  0.09812999     0.14400
In127      In  0.09787148  0.84635389  0.26252109     1.36900
C128        C  0.07019548  0.86003472  0.24659627     0.77300
O129        O  0.12467821  0.84027392  0.25434910    -0.61100
O130        O  0.10887395  0.85511916  0.23791157    -0.52000
C131        C  0.11097947  0.85877554  0.29229807     0.70000
O132        O  0.11257649  0.86602450  0.27806553    -0.46900
C133        C  0.09374627  0.81254195  0.26192060     0.74700
O134        O  0.07013463  0.84560129  0.25365959    -0.58800
O135        O  0.08655859  0.82194856  0.27297820    -0.48900
O136        O  0.08337369  0.86844895  0.24996404    -0.55200
C137        C  0.12327246  0.84834062  0.24043629     0.84900
O138        O  0.10094621  0.84634400  0.29173390    -0.57100
O139        O  0.10284908  0.82048009  0.25142777    -0.60400
In140      In  0.09634455  0.65092291  0.25286260     1.36900
C141        C  0.06866790  0.63665009  0.26730415     0.77300
O142        O  0.11067870  0.63842015  0.27443845    -0.61100
O143        O  0.12125343  0.66038738  0.26300604    -0.52000
C144        C  0.10982660  0.64073075  0.22258254     0.70000
O145        O  0.11436710  0.63489821  0.23687693    -0.46900
C146        C  0.09122056  0.68449490  0.25430468     0.74700
O147        O  0.08203492  0.62831649  0.26393356    -0.58800
O148        O  0.09386973  0.67546992  0.26742585    -0.48900
O149        O  0.06846416  0.65134232  0.26084269    -0.55200
C150        C  0.12274303  0.64888234  0.27417914     0.84900
O151        O  0.09676633  0.65021275  0.22342453    -0.57100
O152        O  0.09077311  0.67626447  0.24039180    -0.60400
C153        C  0.47277096  0.61879462  0.11331983     0.86200
C154        C  0.46366491  0.61603831  0.13037525    -0.54000
C155        C  0.47393464  0.61617161  0.14452490     0.09100
C156        C  0.49294328  0.61894472  0.14017474     0.20100
C157        C  0.48262259  0.63557433  0.11579226    -0.54700
C158        C  0.49329904  0.63571898  0.12972446     0.09200
C159        C  0.48686534  0.60484239  0.11310104    -0.54300
C160        C  0.49756166  0.60485708  0.12702438     0.09800
H161        H  0.44992942  0.61475428  0.13115291     0.14300
H162        H  0.50137102  0.61912492  0.15159277     0.00100
H163        H  0.48166473  0.64616555  0.10688039     0.14600
H164        H  0.48848378  0.59558929  0.10298272     0.14400
In165      In  0.36913950  0.84431795  0.26021539     1.36900
C166        C  0.39873205  0.85404525  0.27494852     0.77300
O167        O  0.35158472  0.86171080  0.27498816    -0.61100
O168        O  0.35516584  0.83640186  0.28383413    -0.52000
C169        C  0.35524487  0.85512915  0.23036122     0.70000
O170        O  0.36744362  0.84452301  0.23092278    -0.46900
C171        C  0.36847964  0.81091245  0.25498305     0.74700
O172        O  0.39029308  0.86403868  0.26540325    -0.58800
O173        O  0.35575441  0.81931056  0.26039349    -0.48900
O174        O  0.39270230  0.83933297  0.27560211    -0.55200
C175        C  0.34787927  0.85062395  0.28598074     0.84900
O176        O  0.35156047  0.86134564  0.24473238    -0.57100
O177        O  0.38127142  0.81983742  0.25122541    -0.60400
In178      In  0.37220828  0.64875431  0.26153789     1.36900
C179        C  0.39930173  0.63363710  0.24636976     0.77300
O180        O  0.34828928  0.63748304  0.25071660    -0.61100
O181        O  0.36144156  0.65590726  0.23604207    -0.52000
C182        C  0.36124728  0.63941186  0.29284347     0.70000
O183        O  0.37101401  0.65181559  0.29048384    -0.46900
C184        C  0.37184365  0.68277761  0.26234723     0.74700
O185        O  0.38432092  0.62834837  0.24500287    -0.58800
O186        O  0.35854022  0.67391073  0.26188666    -0.48900
O187        O  0.40088987  0.64532183  0.25735202    -0.55200
C188        C  0.34898267  0.64593230  0.23700360     0.84900
O189        O  0.35918184  0.63039489  0.27968082    -0.57100
O190        O  0.38553770  0.67417742  0.26285392    -0.60400
C191        C  0.50454614  0.89935658  0.38444041     0.86200
C192        C  0.51454540  0.88250276  0.38643797    -0.54000
C193        C  0.50488955  0.86805637  0.38614684     0.09100
C194        C  0.48554426  0.87190535  0.38406088     0.20100
C195        C  0.49399281  0.89707600  0.36790372    -0.54700
C196        C  0.48394846  0.88280809  0.36757954     0.09200
C197        C  0.49128158  0.89853087  0.39896159    -0.54300
C198        C  0.48092661  0.88452931  0.39873209     0.09800
H199        H  0.52831640  0.88203583  0.38773085     0.14300
H200        H  0.47759107  0.86030619  0.38388503     0.00100
H201        H  0.49447998  0.90607268  0.35736676     0.14600
H202        H  0.49042869  0.90787951  0.40908970     0.14400
In203      In  0.60527547  0.74682745  0.36125271     1.36900
C204        C  0.62094587  0.71772896  0.37191670     0.77300
O205        O  0.59969302  0.73221920  0.33694532    -0.61100
O206        O  0.60184441  0.75918969  0.33582026    -0.52000
C207        C  0.57759397  0.76230266  0.37481858     0.70000
O208        O  0.57713280  0.75411695  0.36097124    -0.46900
C209        C  0.62918465  0.77029344  0.36307924     0.74700
O210        O  0.60512978  0.71827711  0.36878050    -0.58800
O211        O  0.62616022  0.76188653  0.34965105    -0.48900
O212        O  0.62798252  0.73196920  0.37069666    -0.55200
C213        C  0.59924445  0.74551177  0.32778415     0.84900
O214        O  0.59128614  0.76012266  0.38301347    -0.57100
O215        O  0.62009700  0.76644469  0.37577536    -0.60400
In216      In  0.60677547  0.74532308  0.16814563     1.36900
C217        C  0.58161474  0.72617763  0.15467912     0.77300
O218        O  0.62660619  0.73249266  0.15161750    -0.61100
O219        O  0.62939623  0.73177702  0.17867612    -0.52000
C220        C  0.62007346  0.77635150  0.16152387     0.70000
O221        O  0.61694496  0.77079262  0.17624810    -0.46900
C222        C  0.59638202  0.74505070  0.20030556     0.74700
O223        O  0.58040872  0.74232701  0.15502568    -0.58800
O224        O  0.60746149  0.73494745  0.19439092    -0.48900
O225        O  0.59566029  0.72062754  0.16008132    -0.55200
C226        C  0.63507118  0.72709765  0.16433420     0.84900
O227        O  0.61510514  0.76654160  0.14966298    -0.57100
O228        O  0.59008638  0.75542001  0.18953887    -0.60400
In229      In  0.74843307  0.61217926  0.16454284     1.36900
C230        C  0.73005741  0.58697527  0.15024642     0.77300
O231        O  0.75800496  0.59762601  0.18767637    -0.61100
O232        O  0.73482662  0.61185688  0.18935161    -0.52000
C233        C  0.77929452  0.62440608  0.15582890     0.70000
O234        O  0.76950711  0.61753893  0.14504318    -0.46900
C235        C  0.72983331  0.64053290  0.16194827     0.74700
O236        O  0.72792996  0.60258665  0.14723799    -0.58800
O237        O  0.73591067  0.63519058  0.17591774    -0.48900
O238        O  0.74316035  0.58376764  0.15916077    -0.55200
C239        C  0.74568593  0.60257645  0.19692871     0.84900
O240        O  0.77401307  0.62347246  0.17093069    -0.57100
O241        O  0.73410197  0.63183721  0.14904563    -0.60400
In242      In  0.73766728  0.60883365  0.35807869     1.36900
C243        C  0.75161138  0.58172240  0.37426186     0.77300
O244        O  0.72425229  0.60383678  0.33295287    -0.61100
O245        O  0.75124754  0.60308120  0.33354573    -0.52000
C246        C  0.70907862  0.62417247  0.37004068     0.70000
O247        O  0.70856788  0.61037889  0.36166264    -0.46900
C248        C  0.75981227  0.63424712  0.35792939     0.74700
O249        O  0.74343696  0.58027894  0.36043860    -0.58800
O250        O  0.74722786  0.63383125  0.34786704    -0.48900
O251        O  0.74999803  0.59620378  0.38107473    -0.55200
C252        C  0.73790237  0.60179774  0.32466095     0.84900
O253        O  0.72394163  0.62860857  0.37382350    -0.57100
O254        O  0.76116451  0.62150558  0.36765254    -0.60400
C255        C  0.88929655  0.51474206  0.39143949     0.86200
C256        C  0.89005814  0.50196258  0.40641693    -0.54000
C257        C  0.87663807  0.49092622  0.40723310     0.09100
C258        C  0.86354345  0.49376324  0.39253262     0.20100
C259        C  0.88768358  0.50316575  0.37547572    -0.54700
C260        C  0.87425733  0.49201824  0.37590505     0.09200
C261        C  0.87193646  0.52355755  0.39303682    -0.54300
C262        C  0.85830355  0.51292557  0.39356794     0.09800
H263        H  0.90070443  0.50137147  0.41529361     0.14300
H264        H  0.85255457  0.48506166  0.39334250     0.00100
H265        H  0.89648984  0.50360540  0.36485588     0.14600
H266        H  0.87061028  0.53737283  0.39313822     0.14400
C267        C  0.59435407  0.51664095  0.13065261     0.86200
C268        C  0.59452846  0.50419439  0.11533877    -0.54000
C269        C  0.60870954  0.49377166  0.11415241     0.09100
C270        C  0.62150613  0.49697855  0.12912010     0.20100
C271        C  0.59669261  0.50481636  0.14625045    -0.54700
C272        C  0.61089894  0.49452348  0.14561270     0.09200
C273        C  0.61108281  0.52631248  0.12942363    -0.54300
C274        C  0.62543421  0.51632228  0.12879918     0.09800
H275        H  0.58374751  0.50336420  0.10671805     0.14300
H276        H  0.63324613  0.48907112  0.12865672     0.00100
H277        H  0.58758527  0.50409396  0.15661007     0.14600
H278        H  0.61143713  0.54015446  0.12998609     0.14400
In279      In  0.64903396  0.37692933  0.25258871     1.36900
C280        C  0.63860683  0.40341336  0.23336377     0.77300
O281        O  0.67526342  0.36809567  0.24660985    -0.61100
O282        O  0.67251691  0.39237664  0.25845134    -0.52000
C283        C  0.63940395  0.36716629  0.28406174     0.70000
O284        O  0.65257502  0.37576709  0.28134593    -0.46900
C285        C  0.64187880  0.34970038  0.23388245     0.74700
O286        O  0.64825253  0.39154501  0.22841225    -0.58800
O287        O  0.65472926  0.35049544  0.24356932    -0.48900
O288        O  0.63395594  0.40204090  0.24881938    -0.55200
C289        C  0.68249696  0.38126203  0.25220017     0.84900
O290        O  0.62999574  0.36559188  0.27106681    -0.57100
O291        O  0.63214827  0.36262129  0.23439766    -0.60400
In292      In  0.84283975  0.38072372  0.25936228     1.36900
C293        C  0.85351217  0.37112881  0.22812558     0.77300
O294        O  0.85951880  0.36331598  0.27535114    -0.61100
O295        O  0.83319232  0.35796213  0.27302699    -0.52000
C296        C  0.85063644  0.40670614  0.28074585     0.70000
O297        O  0.85994419  0.40307351  0.26799394    -0.46900
C298        C  0.80992531  0.38413255  0.25289343     0.74700
O299        O  0.86125173  0.36679096  0.24159417    -0.58800
O300        O  0.81701129  0.36993089  0.25601461    -0.48900
O301        O  0.84255731  0.38274743  0.23042458    -0.55200
C302        C  0.84737900  0.35365614  0.27928739     0.84900
O303        O  0.83771989  0.39747621  0.28190998    -0.57100
O304        O  0.81983519  0.39677852  0.25271476    -0.60400
In305      In  0.88147921  0.15786032  0.75095634     1.36900
C306        C  0.86890769  0.14859023  0.72000170     0.77300
O307        O  0.86222233  0.14242130  0.76477930    -0.61100
O308        O  0.85764834  0.16906777  0.76235013    -0.52000
C309        C  0.90647807  0.14258486  0.76947949     0.70000
O310        O  0.90944416  0.14936813  0.75511788    -0.46900
C311        C  0.89142252  0.19022652  0.75253468     0.74700
O312        O  0.87494034  0.13783065  0.73046047    -0.58800
O313        O  0.89575411  0.18038709  0.74042453    -0.48900
O314        O  0.87082518  0.16376681  0.72472637    -0.55200
C315        C  0.85272963  0.15499209  0.76828377     0.84900
O316        O  0.89100475  0.14272324  0.77338877    -0.57100
O317        O  0.88272831  0.18323781  0.76407991    -0.60400
In318      In  0.87566269  0.34992873  0.75693700     1.36900
C319        C  0.86571548  0.35970536  0.78846115     0.77300
O320        O  0.85487092  0.36600463  0.74543632    -0.61100
O321        O  0.85057823  0.33945181  0.74853320    -0.52000
C322        C  0.90014811  0.36189909  0.73596898     0.70000
O323        O  0.90232948  0.36124471  0.75202311    -0.46900
C324        C  0.88497154  0.31723945  0.75608782     0.74700
O325        O  0.87124673  0.34501039  0.78487292    -0.58800
O326        O  0.87506544  0.32395662  0.74522907    -0.48900
O327        O  0.86726265  0.37028069  0.77637753    -0.55200
C328        C  0.84494487  0.35362150  0.74319189     0.84900
O329        O  0.88541177  0.35785450  0.73137581    -0.57100
O330        O  0.89020077  0.32728783  0.76758546    -0.60400
C331        C  0.00767695  0.39340514  0.62374145     0.86200
C332        C  0.99439402  0.39293826  0.60907616    -0.54000
C333        C  0.98366867  0.37920648  0.60935587     0.09100
C334        C  0.98711623  0.36722519  0.62484160     0.20100
C335        C  0.99684392  0.39250611  0.64012769    -0.54700
C336        C  0.98609771  0.37888647  0.64088093     0.09200
C337        C  0.01672607  0.37601469  0.62274664    -0.54300
C338        C  0.00622489  0.36223338  0.62338146     0.09800
H339        H  0.99300381  0.40282178  0.59951191     0.14300
H340        H  0.97858873  0.35603384  0.62538901     0.00100
H341        H  0.99751441  0.40200891  0.65023412     0.14600
H342        H  0.03050263  0.37475312  0.62214128     0.14400
C343        C  0.97602494  0.12378026  0.90679957     0.86200
C344        C  0.98913015  0.10891882  0.90575822    -0.54000
C345        C  0.99931070  0.10894822  0.89157449     0.09100
C346        C  0.99537834  0.12418974  0.87949043     0.20100
C347        C  0.98679579  0.13998898  0.90502654    -0.54700
C348        C  0.99702124  0.14042571  0.89081248     0.09200
C349        C  0.96620148  0.12256643  0.88979517    -0.54300
C350        C  0.97610706  0.12289961  0.87540328     0.09800
H351        H  0.99054180  0.09903891  0.91528335     0.14300
H352        H  0.00331043  0.12417266  0.86779704     0.00100
H353        H  0.98650604  0.15007971  0.91454997     0.14600
H354        H  0.95239859  0.12204367  0.88926634     0.14400
In355      In  0.10509513  0.24363322  0.66020154     1.36900
C356        C  0.11860237  0.21346176  0.64968753     0.77300
O357        O  0.11899061  0.26566935  0.64889503    -0.61100
O358        O  0.13026475  0.25309978  0.67013146    -0.52000
C359        C  0.07715640  0.25771926  0.64534062     0.70000
O360        O  0.09089288  0.25519221  0.63744513    -0.46900
C361        C  0.09899959  0.24458627  0.69365650     0.74700
O362        O  0.12237864  0.22759393  0.64320333    -0.58800
O363        O  0.09890210  0.23089459  0.68510817    -0.48900
O364        O  0.10632309  0.21444138  0.65999155    -0.55200
C365        C  0.13135455  0.26482067  0.65916519     0.84900
O366        O  0.07689919  0.25073231  0.65981297    -0.57100
O367        O  0.10202141  0.25780898  0.68500974    -0.60400
In368      In  0.10928937  0.25167668  0.85396878     1.36900
C369        C  0.11958636  0.28279100  0.86390836     0.77300
O370        O  0.12910379  0.23852288  0.87012919    -0.61100
O371        O  0.13483173  0.24374133  0.84411226    -0.52000
C372        C  0.08435704  0.23190384  0.86639161     0.70000
O373        O  0.08269040  0.24798815  0.86586154    -0.46900
C374        C  0.10017402  0.24949921  0.82129392     0.74700
O375        O  0.11529922  0.27928380  0.84877735    -0.58800
O376        O  0.11095201  0.23967434  0.82822740    -0.48900
O377        O  0.11661637  0.27099528  0.87445701    -0.55200
C378        C  0.13972644  0.23726862  0.85808320     0.84900
O379        O  0.09882857  0.22666532  0.86191028    -0.57100
O380        O  0.09385087  0.26066642  0.83117833    -0.60400
In381      In  0.74452032  0.35154583  0.88951738     1.36900
C382        C  0.72405858  0.36390615  0.91436124     0.77300
O383        O  0.73303091  0.36883806  0.86963281    -0.61100
O384        O  0.73433207  0.34212620  0.86478761    -0.52000
C385        C  0.77602878  0.35911262  0.87841241     0.70000
O386        O  0.76546500  0.37056974  0.88287784    -0.46900
C387        C  0.74225698  0.31911539  0.89842207     0.74700
O388        O  0.73997002  0.36227924  0.91679136    -0.58800
O389        O  0.73201732  0.32628446  0.88820820    -0.48900
O390        O  0.71955478  0.36078291  0.89927766    -0.55200
C391        C  0.72943813  0.35664657  0.85970665     0.84900
O392        O  0.77109417  0.34420296  0.88145860    -0.57100
O393        O  0.75374886  0.32864779  0.90440464    -0.60400
In394      In  0.74225089  0.16036887  0.88383795     1.36900
C395        C  0.71193664  0.14928916  0.87230977     0.77300
O396        O  0.73025375  0.18153429  0.89931026    -0.61100
O397        O  0.74966142  0.18736415  0.88123500    -0.52000
C398        C  0.76268875  0.15083898  0.90992133     0.70000
O399        O  0.74710633  0.14673669  0.90955266    -0.46900
C400        C  0.76027509  0.15555148  0.85571943     0.74700
O401        O  0.72443756  0.13926239  0.87464790    -0.58800
O402        O  0.75197567  0.16914182  0.85850251    -0.48900
O403        O  0.71455794  0.16425199  0.87745137    -0.55200
C404        C  0.73951519  0.19275995  0.89253126     0.84900
O405        O  0.76728322  0.15922854  0.89712932    -0.57100
O406        O  0.75838280  0.14405053  0.86682809    -0.60400
C407        C  0.61255926  0.39944156  0.02242717     0.86200
C408        C  0.61128326  0.38173362  0.03084081    -0.54000
C409        C  0.61155713  0.36824870  0.01966824     0.09100
C410        C  0.61256366  0.37375964  0.00069474     0.20100
C411        C  0.62859627  0.39821930  0.01121260    -0.54700
C412        C  0.62877598  0.38490513  0.99976784     0.09200
C413        C  0.59769663  0.39970086  0.00944560    -0.54300
C414        C  0.59724124  0.38627989  0.99815624     0.09800
H415        H  0.61073456  0.37998005  0.04461402     0.14300
H416        H  0.61270683  0.36270669  0.99182149     0.00100
H417        H  0.63889949  0.40730464  0.01222189     0.14600
H418        H  0.58812478  0.40960049  0.00911705     0.14400
C419        C  0.86708711  0.10183657  0.01976078     0.86200
C420        C  0.86788789  0.11824248  0.03034715    -0.54000
C421        C  0.86913612  0.13294055  0.02109982     0.09100
C422        C  0.86927469  0.12984730  0.00154944     0.20100
C423        C  0.85201134  0.10479052  0.00740935    -0.54700
C424        C  0.85289236  0.11948161  0.99791035     0.09200
C425        C  0.88274591  0.10244637  0.00807099    -0.54300
C426        C  0.88430932  0.11710616  0.99852994     0.09800
H427        H  0.86721325  0.11814493  0.04423173     0.14300
H428        H  0.87012519  0.14190593  0.99425437     0.00100
H429        H  0.84167706  0.09592882  0.00581276     0.14600
H430        H  0.89162672  0.09179275  0.00742765     0.14400
In431      In  0.83595749  0.24946490  0.12493922     1.36900
C432        C  0.85177978  0.23255546  0.09940491     0.77300
O433        O  0.85030220  0.23703903  0.14661761    -0.61100
O434        O  0.82336212  0.23528946  0.14592411    -0.52000
C435        C  0.84356754  0.28017236  0.13862820     0.70000
O436        O  0.85481437  0.27041147  0.13232976    -0.46900
C437        C  0.80411717  0.24754820  0.11382008     0.74700
O438        O  0.84417053  0.24662282  0.09694155    -0.58800
O439        O  0.81145358  0.23570309  0.12200555    -0.48900
O440        O  0.85264649  0.22833028  0.11488278    -0.55200
C441        C  0.83702241  0.23122072  0.15341408     0.84900
O442        O  0.82866947  0.27483428  0.13655929    -0.57100
O443        O  0.81339403  0.26027008  0.11060873    -0.60400
In444      In  0.64346496  0.24337802  0.11263658     1.36900
C445        C  0.63132405  0.25956292  0.08436564     0.77300
O446        O  0.63180761  0.26569936  0.12658486    -0.61100
O447        O  0.65007843  0.25047157  0.13963214    -0.52000
C448        C  0.63261496  0.21301260  0.12446995     0.70000
O449        O  0.62456153  0.22678750  0.12674584    -0.46900
C450        C  0.67699479  0.24341175  0.10913570     0.74700
O451        O  0.62177334  0.25358573  0.09578825    -0.58800
O452        O  0.66869804  0.25575755  0.11548268    -0.48900
O453        O  0.64663558  0.25514326  0.08617873    -0.55200
C454        C  0.64004624  0.26309555  0.14020746     0.84900
O455        O  0.64464727  0.21430983  0.11393622    -0.57100
O456        O  0.66807928  0.23086817  0.10445509    -0.60400
C457        C  0.59227745  0.12379949  0.52332305     0.86200
C458        C  0.60933343  0.12104634  0.53265465    -0.54000
C459        C  0.62331197  0.12081304  0.52228305     0.09100
C460        C  0.61886837  0.12289400  0.50306661     0.20100
C461        C  0.59479256  0.14028281  0.51266652    -0.54700
C462        C  0.60862701  0.13989269  0.50194828     0.09200
C463        C  0.59175603  0.10964516  0.50965529    -0.54300
C464        C  0.60555841  0.10896848  0.49899763     0.09800
H465        H  0.61030629  0.12018472  0.54650092     0.14300
H466        H  0.63025588  0.12234410  0.49471579     0.00100
H467        H  0.58590063  0.15092178  0.51261271     0.14600
H468        H  0.58111084  0.10099260  0.50834709     0.14400
In469      In  0.84497048  0.24304499  0.39608127     1.36900
C470        C  0.85932074  0.25787623  0.42386053     0.77300
O471        O  0.85901544  0.26276410  0.38102178    -0.61100
O472        O  0.83654719  0.25234013  0.37028045    -0.52000
C473        C  0.85311182  0.21165885  0.38371384     0.70000
O474        O  0.86340503  0.22382563  0.38354123    -0.46900
C475        C  0.81168309  0.24836811  0.40113582     0.74700
O476        O  0.86611000  0.25749708  0.40933618    -0.58800
O477        O  0.81981026  0.23637393  0.40839845    -0.48900
O478        O  0.84625778  0.24875518  0.42482539    -0.55200
C479        C  0.84867120  0.26265065  0.36865613     0.84900
O480        O  0.83992542  0.21491316  0.39218004    -0.57100
O481        O  0.82075833  0.25792607  0.39203365    -0.60400
In482      In  0.65153157  0.24877526  0.38743825     1.36900
C483        C  0.63883620  0.22884587  0.41257884     0.77300
O484        O  0.63627844  0.23525867  0.36739819    -0.61100
O485        O  0.66322534  0.23338429  0.36616452    -0.52000
C486        C  0.63979186  0.27913822  0.37608902     0.70000
O487        O  0.65137476  0.27778997  0.38721736    -0.46900
C488        C  0.68429745  0.25402100  0.39464424     0.74700
O489        O  0.63533444  0.24465323  0.41175135    -0.58800
O490        O  0.67842052  0.25386207  0.37960640    -0.48900
O491        O  0.64847386  0.22375761  0.40076969    -0.55200
C492        C  0.64911226  0.22945815  0.35955876     0.84900
O493        O  0.63255981  0.26525302  0.37280865    -0.57100
O494        O  0.67330480  0.25179740  0.40617800    -0.60400
C495        C  0.87539031  0.39326645  0.49428593     0.86200
C496        C  0.87712260  0.37597106  0.48508091    -0.54000
C497        C  0.87718023  0.36205214  0.49556795     0.09100
C498        C  0.87599859  0.36674674  0.51478675     0.20100
C499        C  0.85939926  0.39155929  0.50553414    -0.54700
C500        C  0.85949033  0.37774801  0.51639466     0.09200
C501        C  0.89043785  0.39302256  0.50709902    -0.54300
C502        C  0.89090362  0.37926763  0.51796487     0.09800
H503        H  0.87803645  0.37469436  0.47128953     0.14300
H504        H  0.87649094  0.35529587  0.52308041     0.00100
H505        H  0.84908326  0.40085964  0.50506167     0.14600
H506        H  0.90002326  0.40287494  0.50752860     0.14400
In507      In  0.73999708  0.34611386  0.62404964     1.36900
C508        C  0.76357142  0.35460760  0.60041688     0.77300
O509        O  0.75355472  0.36279037  0.64286508    -0.61100
O510        O  0.75036949  0.33660192  0.64894434    -0.52000
C511        C  0.70928319  0.35923323  0.63238422     0.70000
O512        O  0.71106762  0.34558228  0.62403435    -0.46900
C513        C  0.73576586  0.31297822  0.61885728     0.74700
O514        O  0.74819646  0.35956808  0.59908276    -0.58800
O515        O  0.73794934  0.31951993  0.63344366    -0.48900
O516        O  0.76636980  0.34563362  0.61346387    -0.55200
C517        C  0.75617456  0.35086807  0.65343312     0.84900
O518        O  0.72286046  0.36752651  0.63384650    -0.57100
O519        O  0.73522584  0.32357230  0.60663870    -0.60400
In520      In  0.74758464  0.15139174  0.61713104     1.36900
C521        C  0.73087710  0.13942131  0.58928902     0.77300
O522        O  0.72577016  0.13690817  0.62875330    -0.61100
O523        O  0.73628602  0.15772003  0.64239155    -0.52000
C524        C  0.77877049  0.14211678  0.62933976     0.70000
O525        O  0.76534867  0.13418247  0.63252914    -0.46900
C526        C  0.74559085  0.18523041  0.61499024     0.74700
O527        O  0.73823707  0.12966014  0.59989788    -0.58800
O528        O  0.75322678  0.17637037  0.60375547    -0.48900
O529        O  0.73393733  0.15493999  0.59178484    -0.55200
C530        C  0.72533724  0.14609536  0.64199619     0.84900
O531        O  0.77677004  0.15330082  0.61791587    -0.57100
O532        O  0.73937925  0.17672542  0.62709707    -0.60400
In533      In  0.60971139  0.15666738  0.75207497     1.36900
C534        C  0.62100588  0.14572147  0.78292070     0.77300
O535        O  0.62332995  0.13904765  0.73398828    -0.61100
O536        O  0.63496137  0.16247886  0.74098903    -0.52000
C537        C  0.58382872  0.14742061  0.73138458     0.70000
O538        O  0.58511634  0.14154466  0.74648462    -0.46900
C539        C  0.60637804  0.19048717  0.75362121     0.74700
O540        O  0.62323509  0.13743382  0.76929145    -0.58800
O541        O  0.61983170  0.18284462  0.74909419    -0.48900
O542        O  0.61073567  0.15808594  0.78123868    -0.55200
C543        C  0.63569266  0.14902977  0.73211916     0.84900
O544        O  0.59511705  0.15804223  0.72775121    -0.57100
O545        O  0.59439352  0.18070663  0.75792565    -0.60400
In546      In  0.60916915  0.35296170  0.75416445     1.36900
C547        C  0.62001239  0.36296003  0.72291691     0.77300
O548        O  0.63000408  0.36914940  0.76511401    -0.61100
O549        O  0.62927072  0.34278607  0.77161401    -0.52000
C550        C  0.58309433  0.36599738  0.77312801     0.70000
O551        O  0.59818406  0.36456286  0.77830522    -0.46900
C552        C  0.60562633  0.31910719  0.75227529     0.74700
O553        O  0.61181678  0.34950067  0.72539013    -0.58800
O554        O  0.61978418  0.32642516  0.75364343    -0.48900
O555        O  0.62035613  0.37257310  0.73582410    -0.55200
C556        C  0.63686222  0.35683561  0.77305732     0.84900
O557        O  0.58117626  0.36155342  0.75768692    -0.57100
O558        O  0.59294405  0.32917937  0.75202172    -0.60400
C559        C  0.50574388  0.38320470  0.90463804     0.86200
C560        C  0.49202635  0.39750271  0.90430860    -0.54000
C561        C  0.48153484  0.39747800  0.89024504     0.09100
C562        C  0.48611904  0.38302770  0.87735309     0.20100
C563        C  0.49563258  0.36661593  0.90221982    -0.54700
C564        C  0.48514301  0.36639654  0.88812448     0.09200
C565        C  0.51526695  0.38557118  0.88771589    -0.54300
C566        C  0.50534885  0.38525681  0.87331591     0.09800
H567        H  0.49075683  0.40724118  0.91404097     0.14300
H568        H  0.47798745  0.38295157  0.86572297     0.00100
H569        H  0.49622612  0.35625982  0.91142392     0.14600
H570        H  0.52902772  0.38668608  0.88718294     0.14400
C571        C  0.47418337  0.09799312  0.62688855     0.86200
C572        C  0.48602713  0.09888911  0.61120007    -0.54000
C573        C  0.49554512  0.11346380  0.61016051     0.09100
C574        C  0.49196329  0.12605258  0.62508278     0.20100
C575        C  0.48643139  0.10070282  0.64216113    -0.54700
C576        C  0.49583656  0.11539812  0.64141528     0.09200
C577        C  0.46343669  0.11433089  0.62609498    -0.54300
C578        C  0.47242490  0.12913528  0.62511277     0.09800
H579        H  0.48709108  0.08859964  0.60195311     0.14300
H580        H  0.49919381  0.13805122  0.62417772     0.00100
H581        H  0.48818663  0.09127986  0.65215481     0.14600
H582        H  0.44964035  0.11404225  0.62685325     0.14400
In583      In  0.37401361  0.25193723  0.66072877     1.36900
C584        C  0.34584058  0.23358997  0.65918420     0.77300
O585        O  0.36148241  0.26950112  0.64122099    -0.61100
O586        O  0.37349720  0.28094398  0.66230650    -0.52000
C587        C  0.38142237  0.25393733  0.69393849     0.70000
O588        O  0.36657550  0.25525474  0.68789280    -0.46900
C589        C  0.39802179  0.23171004  0.64657820     0.74700
O590        O  0.35223557  0.23866870  0.67308525    -0.58800
O591        O  0.38366163  0.22671488  0.65135456    -0.48900
O592        O  0.35383080  0.23803771  0.64595551    -0.55200
C593        C  0.36377494  0.28297495  0.64964304     0.84900
O594        O  0.39288575  0.25141385  0.68288654    -0.57100
O595        O  0.40032502  0.24755539  0.64860617    -0.60400
In596      In  0.37718076  0.24857915  0.85562621     1.36900
C597        C  0.36893311  0.21638117  0.86449254     0.77300
O598        O  0.35956743  0.26113056  0.87451440    -0.61100
O599        O  0.35078071  0.25727696  0.84906315    -0.52000
C600        C  0.40082138  0.27115619  0.86631249     0.70000
O601        O  0.40291666  0.25524746  0.86868989    -0.46900
C602        C  0.38275157  0.25016094  0.82211355     0.74700
O603        O  0.37455435  0.22033860  0.84998180    -0.58800
O604        O  0.36937690  0.25556242  0.82929222    -0.48900
O605        O  0.36988659  0.22833991  0.87526384    -0.55200
C606        C  0.34770858  0.26324012  0.86375082     0.84900
O607        O  0.38701811  0.27483879  0.85899526    -0.57100
O608        O  0.39354659  0.24341168  0.83218693    -0.60400
C609        C  0.10924705  0.60817889  0.52026548     0.86200
C610        C  0.09430190  0.60863580  0.50739987    -0.54000
C611        C  0.09360913  0.62276487  0.49704026     0.09100
C612        C  0.10842802  0.63527184  0.50058993     0.20100
C613        C  0.12520963  0.61036574  0.50917275    -0.54700
C614        C  0.12495184  0.62445660  0.49876838     0.09200
C615        C  0.10735421  0.62518938  0.53002801    -0.54300
C616        C  0.10730399  0.63939988  0.51989742     0.09800
H617        H  0.08492451  0.59867312  0.50657740     0.14300
H618        H  0.10806146  0.64696730  0.49263507     0.00100
H619        H  0.13568170  0.60122211  0.50940757     0.14600
H620        H  0.10685720  0.62600376  0.54388941     0.14400
In621      In  0.23047839  0.85865116  0.39646216     1.36900
C622        C  0.24571338  0.87237584  0.42427807     0.77300
O623        O  0.22760738  0.83307212  0.40913253    -0.61100
O624        O  0.22895141  0.83407057  0.38197853    -0.52000
C625        C  0.19951648  0.86868314  0.38461354     0.70000
O626        O  0.21289897  0.87700487  0.38212052    -0.46900
C627        C  0.25628067  0.86018805  0.37448948     0.74700
O628        O  0.24378412  0.88025728  0.41036484    -0.58800
O629        O  0.25599809  0.85006642  0.38696830    -0.48900
O630        O  0.23741276  0.85873271  0.42490969    -0.55200
C631        C  0.22791426  0.82487740  0.39518539     0.84900
O632        O  0.20146431  0.85683237  0.39534931    -0.57100
O633        O  0.24332384  0.86973473  0.37326224    -0.60400
In634      In  0.23671777  0.66295069  0.38680179     1.36900
C635        C  0.21677537  0.65374201  0.41305445     0.77300
O636        O  0.24090153  0.68741427  0.40174065    -0.61100
O637        O  0.23463114  0.68883663  0.37532809    -0.52000
C638        C  0.26763055  0.65066383  0.37748953     0.70000
O639        O  0.26581723  0.66374789  0.38673621    -0.46900
C640        C  0.21651661  0.65515116  0.36084424     0.74700
O641        O  0.23213779  0.64868822  0.41216466    -0.58800
O642        O  0.22503755  0.66869799  0.36143413    -0.48900
O643        O  0.21242840  0.66365073  0.40117338    -0.55200
C644        C  0.23754898  0.69684543  0.38900370     0.84900
O645        O  0.25391649  0.64294672  0.37476994    -0.57100
O646        O  0.21900162  0.64510264  0.37323493    -0.60400
C647        C  0.38558614  0.87942286  0.48786073     0.86200
C648        C  0.38706712  0.89320011  0.50197265    -0.54000
C649        C  0.37362035  0.89388939  0.51314363     0.09100
C650        C  0.35981479  0.88040331  0.50914152     0.20100
C651        C  0.38303731  0.86277172  0.49808873    -0.54700
C652        C  0.36965347  0.86323054  0.50926886     0.09200
C653        C  0.36828833  0.88293536  0.47930694    -0.54300
C654        C  0.35468405  0.88325088  0.49018840     0.09800
H655        H  0.39789722  0.90163140  0.50308081     0.14300
H656        H  0.34884434  0.88071158  0.51806329     0.00100
H657        H  0.39163617  0.85187939  0.49746472     0.14600
H658        H  0.36688011  0.88433165  0.46554137     0.14400
In659      In  0.14108214  0.76003158  0.61732602     1.36900
C660        C  0.13003878  0.79002299  0.63129535     0.77300
O661        O  0.13043118  0.73689134  0.63011340    -0.61100
O662        O  0.14929946  0.75089576  0.64334378    -0.52000
C663        C  0.12736576  0.74532308  0.58921025     0.70000
O664        O  0.11904541  0.74810849  0.60268181    -0.46900
C665        C  0.17433613  0.75916199  0.61085869     0.74700
O666        O  0.14264873  0.78898309  0.62146116    -0.58800
O667        O  0.16675106  0.74715398  0.61833272    -0.48900
O668        O  0.12189637  0.77631997  0.63215884    -0.55200
C669        C  0.13926051  0.73842672  0.64349083     0.84900
O670        O  0.14161368  0.75247831  0.58914154    -0.57100
O671        O  0.16483598  0.77158335  0.60658936    -0.60400
In672      In  0.33357488  0.75159199  0.62134658     1.36900
C673        C  0.34395853  0.72038519  0.63220732     0.77300
O674        O  0.34732242  0.76405292  0.64317058    -0.61100
O675        O  0.32072983  0.76026452  0.64543638    -0.52000
C676        C  0.34804383  0.77086795  0.59691298     0.70000
O677        O  0.34611235  0.77536268  0.61222066    -0.46900
C678        C  0.30151760  0.75429077  0.61037824     0.74700
O679        O  0.35433612  0.73196780  0.62833375    -0.58800
O680        O  0.30899621  0.76597856  0.61844411    -0.48900
O681        O  0.32872732  0.72422026  0.62877434    -0.55200
C682        C  0.33409109  0.76614197  0.65206660     0.84900
O683        O  0.34406407  0.75549200  0.59412886    -0.57100
O684        O  0.31068410  0.74128860  0.60728327    -0.60400
C685        C  0.09923808  0.48608494  0.62162650     0.86200
C686        C  0.11671285  0.47734892  0.62039369    -0.54000
C687        C  0.13019063  0.48816828  0.62041675     0.09100
C688        C  0.12491707  0.50720202  0.62136642     0.20100
C689        C  0.10040238  0.49756981  0.63762688    -0.54700
C690        C  0.11390222  0.50866130  0.63786673     0.09200
C691        C  0.09881304  0.49894432  0.60674578    -0.54300
C692        C  0.11222813  0.50998907  0.60625175     0.09800
H693        H  0.11831411  0.46355530  0.62028394     0.14300
H694        H  0.13615587  0.51555811  0.62085810     0.00100
H695        H  0.09103447  0.49684406  0.64773148     0.14600
H696        H  0.08829429  0.50006466  0.59785963     0.14400
In697      In  0.24013123  0.38115756  0.85767370     1.36900
C698        C  0.25487983  0.41081931  0.86713909     0.77300
O699        O  0.26061143  0.36730358  0.87272435    -0.61100
O700        O  0.24887785  0.35458478  0.85193853    -0.52000
C701        C  0.20964718  0.37087901  0.86893545     0.70000
O702        O  0.21121284  0.38221165  0.85761263    -0.46900
C703        C  0.23971875  0.38166917  0.82373756     0.74700
O704        O  0.24829005  0.40082086  0.87782092    -0.58800
O705        O  0.25285543  0.37788858  0.83238287    -0.48900
O706        O  0.25237430  0.40645746  0.85190533    -0.55200
C707        C  0.25954291  0.35381313  0.86397612     0.84900
O708        O  0.22345711  0.36671201  0.87604075    -0.57100
O709        O  0.22666433  0.38521742  0.83254398    -0.60400
In710      In  0.24060673  0.38251771  0.66132179     1.36900
C711        C  0.22803423  0.41168789  0.64754825     0.77300
O712        O  0.21856716  0.36864510  0.64933508    -0.61100
O713        O  0.23231745  0.35642823  0.66928032    -0.52000
C714        C  0.27119885  0.37072359  0.65090836     0.70000
O715        O  0.26959215  0.38263186  0.66163971    -0.46900
C716        C  0.23958807  0.38561498  0.69512038     0.74700
O717        O  0.23327276  0.41058348  0.66272691    -0.58800
O718        O  0.22628574  0.38349336  0.68626348    -0.48900
O719        O  0.23082031  0.39839726  0.63887666    -0.55200
C720        C  0.22023778  0.35562720  0.65869260     0.84900
O721        O  0.25735882  0.36638546  0.64410801    -0.57100
O722        O  0.25310934  0.38690565  0.68653903    -0.60400
C723        C  0.38479418  0.48629806  0.88596757     0.86200
C724        C  0.36777295  0.47705277  0.88740995    -0.54000
C725        C  0.35380393  0.48751476  0.88795197     0.09100
C726        C  0.35809253  0.50673506  0.88736430     0.20100
C727        C  0.38260728  0.49811686  0.87022800    -0.54700
C728        C  0.36863254  0.50878286  0.87077238     0.09200
C729        C  0.38491739  0.49886090  0.90116988    -0.54300
C730        C  0.37109198  0.50974499  0.90208120     0.09800
H731        H  0.36679524  0.46322903  0.88718771     0.14300
H732        H  0.34661395  0.51507175  0.88795479     0.00100
H733        H  0.39172621  0.49873235  0.85989923     0.14600
H734        H  0.39531643  0.49919323  0.91034108     0.14400
In735      In  0.34209611  0.62203633  0.75481596     1.36900
C736        C  0.35152448  0.63097319  0.72279125     0.77300
O737        O  0.31770522  0.60715548  0.75052068    -0.61100
O738        O  0.31637872  0.63243307  0.76029049    -0.52000
C739        C  0.34999562  0.59692620  0.77716030     0.70000
O740        O  0.35274443  0.59507667  0.76124659    -0.46900
C741        C  0.35074496  0.65026865  0.77087437     0.74700
O742        O  0.36197117  0.63048449  0.73509695    -0.58800
O743        O  0.33658695  0.64829043  0.76350466    -0.48900
O744        O  0.33744901  0.62430835  0.72631424    -0.55200
C745        C  0.30837145  0.61924436  0.75596841     0.84900
O746        O  0.34423271  0.61141126  0.78103234    -0.57100
O747        O  0.36102424  0.63781598  0.76953949    -0.60400
In748      In  0.14681963  0.62098003  0.75289242     1.36900
C749        C  0.13288055  0.62959868  0.78312444     0.77300
O750        O  0.17086735  0.60597278  0.75945817    -0.61100
O751        O  0.17272652  0.63218483  0.75297395    -0.52000
C752        C  0.13953377  0.59432950  0.73233284     0.70000
O753        O  0.14991841  0.60592606  0.72883733    -0.46900
C754        C  0.14025003  0.64848971  0.73397094     0.74700
O755        O  0.12534916  0.63178419  0.76903945    -0.58800
O756        O  0.15243607  0.64756807  0.74446159    -0.48900
O757        O  0.14628487  0.62071071  0.78195478    -0.55200
C758        C  0.18043243  0.61864842  0.75719661     0.84900
O759        O  0.13268900  0.59602829  0.74691371    -0.57100
O760        O  0.13110890  0.63534484  0.73335126    -0.60400
In761      In  0.13377492  0.74980930  0.88473818     1.36900
C762        C  0.12299437  0.71952198  0.87240111     0.77300
O763        O  0.11892201  0.77160470  0.87257222    -0.61100
O764        O  0.14448041  0.76733130  0.86515947    -0.52000
C765        C  0.12232573  0.76560545  0.91324399     0.70000
O766        O  0.11267967  0.76185823  0.90088067    -0.46900
C767        C  0.16743140  0.74612803  0.88663500     0.74700
O768        O  0.11831841  0.73366507  0.86641177    -0.58800
O769        O  0.15959523  0.74769613  0.87256779    -0.48900
O770        O  0.13126872  0.72079861  0.88616264    -0.55200
C771        C  0.13114306  0.77615298  0.86330543     0.84900
O772        O  0.13713478  0.75949275  0.91185786    -0.57100
O773        O  0.15794444  0.74604717  0.89968087    -0.60400
In774      In  0.32949557  0.74944781  0.89120584     1.36900
C775        C  0.33994317  0.78137540  0.88470832     0.77300
O776        O  0.34888464  0.73335819  0.87731554    -0.61100
O777        O  0.32750087  0.74317176  0.86360986    -0.52000
C778        C  0.33688782  0.72778995  0.91709859     0.70000
O779        O  0.34174680  0.74317584  0.91740914    -0.46900
C780        C  0.29553306  0.74945185  0.89085770     0.74700
O781        O  0.34962828  0.76853777  0.88338149    -0.58800
O782        O  0.30443869  0.74416845  0.87850984    -0.48900
O783        O  0.32605916  0.77821274  0.89202540    -0.55200
C784        C  0.34099249  0.73431691  0.86324347     0.84900
O785        O  0.32840760  0.72408754  0.90396930    -0.57100
O786        O  0.30405908  0.75492922  0.90345352    -0.60400
C787        C  0.37894820  0.61438101  0.02140459     0.86200
C788        C  0.38001315  0.60040542  0.00753176    -0.54000
C789        C  0.36658578  0.60004321  0.99626349     0.09100
C790        C  0.35278727  0.61385652  0.00037869     0.20100
C791        C  0.37625085  0.63097791  0.01114300    -0.54700
C792        C  0.36252840  0.63104027  0.00017415     0.09200
C793        C  0.36182002  0.61131682  0.03016692    -0.54300
C794        C  0.34802402  0.61125248  0.01945681     0.09800
H795        H  0.39050116  0.59148583  0.00633171     0.14300
H796        H  0.34155075  0.61341017  0.99179610     0.00100
H797        H  0.38482911  0.64166065  0.01245903     0.14600
H798        H  0.36062363  0.61039615  0.04398332     0.14400
C799        C  0.10864716  0.89901846  0.99113258     0.86200
C800        C  0.09355047  0.89791821  0.00351840    -0.54000
C801        C  0.09304233  0.88335224  0.01323061     0.09100
C802        C  0.10828651  0.87101238  0.00952711     0.20100
C803        C  0.12448198  0.89650287  0.00274161    -0.54700
C804        C  0.12442595  0.88196051  0.01250786     0.09200
C805        C  0.10784735  0.88250745  0.98057859    -0.54300
C806        C  0.10763747  0.86778465  0.98991237     0.09800
H807        H  0.08425500  0.90819450  0.00467317     0.14300
H808        H  0.10800482  0.85909423  0.01714884     0.00100
H809        H  0.13509692  0.90515192  0.00319951     0.14600
H810        H  0.10775544  0.88252260  0.96667339     0.14400
In811      In  0.23448193  0.65066769  0.12268685     1.36900
C812        C  0.20326596  0.64228423  0.13514085     0.77300
O813        O  0.24711123  0.63676621  0.14449878    -0.61100
O814        O  0.25994825  0.65777268  0.13367207    -0.52000
C815        C  0.24781464  0.63540667  0.09452253     0.70000
O816        O  0.23864486  0.64865433  0.09376918    -0.46900
C817        C  0.23458288  0.68474628  0.12263713     0.74700
O818        O  0.21691591  0.63478811  0.13909831    -0.58800
O819        O  0.23455909  0.67605863  0.10903058    -0.48900
O820        O  0.20513754  0.65297715  0.12326681    -0.55200
C821        C  0.26004682  0.64613404  0.14479305     0.84900
O822        O  0.24811844  0.62878364  0.10915969    -0.57100
O823        O  0.23414928  0.67596549  0.13616694    -0.60400
In824      In  0.23676590  0.84647213  0.12668670     1.36900
C825        C  0.26712922  0.85815054  0.13760749     0.77300
O826        O  0.22780587  0.84086846  0.15332340    -0.61100
O827        O  0.21480737  0.86002087  0.13915055    -0.52000
C828        C  0.21824873  0.85493057  0.09852805     0.70000
O829        O  0.22835486  0.86537348  0.10548934    -0.46900
C830        C  0.23955947  0.81287462  0.12463754     0.74700
O831        O  0.26574130  0.84533686  0.12797432    -0.58800
O832        O  0.23198569  0.82064401  0.13659198    -0.48900
O833        O  0.25344019  0.86648624  0.13923463    -0.55200
C834        C  0.21570202  0.85149499  0.15279537     0.84900
O835        O  0.21867089  0.84040795  0.10528668    -0.57100
O836        O  0.24600402  0.82243356  0.11335111    -0.60400
In837      In  0.13580259  0.89480252  0.75327467     1.36900
C838        C  0.12617013  0.87991075  0.72332323     0.77300
O839        O  0.16086328  0.90119519  0.74095685    -0.61100
O840        O  0.16095755  0.89360223  0.76702474    -0.52000
C841        C  0.12239001  0.92382259  0.76685378     0.70000
O842        O  0.11350036  0.91111656  0.76287264    -0.46900
C843        C  0.13187594  0.87009748  0.77612574     0.74700
O844        O  0.13471065  0.89345952  0.72375790    -0.58800
O845        O  0.14419043  0.87065251  0.76582924    -0.48900
O846        O  0.12111760  0.87537419  0.73782647    -0.55200
C847        C  0.16960263  0.89805188  0.75422858     0.84900
O848        O  0.13747822  0.92262696  0.76165694    -0.57100
O849        O  0.12141423  0.88234668  0.77478468    -0.60400
In850      In  0.32949148  0.88209790  0.76271182     1.36900
C851        C  0.33740208  0.86990724  0.79417647     0.77300
O852        O  0.30610150  0.89521773  0.77307337    -0.61100
O853        O  0.30562601  0.88619068  0.74738311    -0.52000
C854        C  0.34651783  0.90719354  0.74653380     0.70000
O855        O  0.33749103  0.91016694  0.75958910    -0.46900
C856        C  0.33094363  0.85292128  0.74519385     0.74700
O857        O  0.34859877  0.87530459  0.78404579    -0.58800
O858        O  0.31720684  0.85912134  0.75081167    -0.48900
O859        O  0.32248866  0.87199521  0.78871511    -0.55200
C860        C  0.29746100  0.89290779  0.75959581     0.84900
O861        O  0.34759075  0.89162483  0.74283149    -0.57100
O862        O  0.34395906  0.86138752  0.74901772    -0.60400
C863        C  0.10882077  0.99474320  0.90192836     0.86200
C864        C  0.10720618  0.98576727  0.88452924    -0.54000
C865        C  0.10682228  0.99638378  0.87067078     0.09100
C866        C  0.10816962  0.01549447  0.87555403     0.20100
C867        C  0.12497861  0.00571214  0.90006417    -0.54700
C868        C  0.12482159  0.01653537  0.88628719     0.09200
C869        C  0.09407773  0.00776832  0.90217762    -0.54300
C870        C  0.09339245  0.01866076  0.88846617     0.09800
H871        H  0.10662061  0.97197214  0.88327839     0.14300
H872        H  0.10782267  0.02404577  0.86424750     0.00100
H873        H  0.13575074  0.00520885  0.90870451     0.14600
H874        H  0.08493081  0.00825647  0.91255899     0.14400
C875        C  0.37169699  0.97768301  0.61388878     0.86200
C876        C  0.37400054  0.96847925  0.63103317    -0.54000
C877        C  0.37458956  0.97888329  0.64513449     0.09100
C878        C  0.37311089  0.99813910  0.64052122     0.20100
C879        C  0.35569497  0.98909435  0.61640407    -0.54700
C880        C  0.35624674  0.99973052  0.63030161     0.09200
C881        C  0.38634657  0.99056675  0.61327796    -0.54300
C882        C  0.38724730  0.00146683  0.62704007     0.09800
H883        H  0.37416749  0.95464714  0.63188793     0.14300
H884        H  0.37363635  0.00671821  0.65180613     0.00100
H885        H  0.34509033  0.98962951  0.60754440     0.14600
H886        H  0.39521463  0.99099904  0.60267108     0.14400
In887      In  0.24608863  0.12005076  0.85606499     1.36900
C888        C  0.27794412  0.12915368  0.86503295     0.77300
O889        O  0.25468857  0.10246956  0.83473322    -0.61100
O890        O  0.23661567  0.12219952  0.82932844    -0.52000
C891        C  0.22331011  0.09716294  0.86753726     0.70000
O892        O  0.21988356  0.11187411  0.86214862    -0.46900
C893        C  0.23214093  0.15073644  0.86015988     0.74700
O894        O  0.27354026  0.12492202  0.85014773    -0.58800
O895        O  0.23787216  0.14547124  0.84600953    -0.48900
O896        O  0.26647279  0.12683863  0.87609832    -0.55200
C897        C  0.24520357  0.10970681  0.82375676     0.84900
O898        O  0.23917251  0.09403962  0.86842120    -0.57100
O899        O  0.23426131  0.14050819  0.87249230    -0.60400
In900      In  0.24280164  0.11343298  0.66490837     1.36900
C901        C  0.21181546  0.12547440  0.65533509     0.77300
O902        O  0.23149469  0.09828918  0.68650259    -0.61100
O903        O  0.25337580  0.11340914  0.69138491    -0.52000
C904        C  0.26361761  0.08845981  0.65279850     0.70000
O905        O  0.24754973  0.08701266  0.65227191    -0.46900
C906        C  0.25786586  0.14326274  0.66144942     0.74700
O907        O  0.21549956  0.12097084  0.67035986    -0.58800
O908        O  0.25244619  0.13787854  0.67560885    -0.48900
O909        O  0.22338997  0.12202882  0.64460925    -0.55200
C910        C  0.24233048  0.10346865  0.69728831     0.84900
O911        O  0.26836644  0.10269778  0.65828000    -0.57100
O912        O  0.25511604  0.13351529  0.64888515    -0.60400
C913        C  0.24185055  0.09910471  0.71557723    -0.01600
C914        C  0.22632655  0.09893433  0.72424299    -0.09600
C915        C  0.22595524  0.09805603  0.74209274    -0.18400
C916        C  0.24122733  0.09716603  0.75176277     0.04000
C917        C  0.25683787  0.09560873  0.74272227     0.18200
C918        C  0.25703577  0.09690137  0.72479613    -0.19800
C919        C  0.27219196  0.09347300  0.75166286    -0.21100
C920        C  0.27249761  0.09379414  0.76946788    -0.19600
C921        C  0.25754044  0.09685449  0.77872400     0.19600
C922        C  0.24164991  0.09844991  0.76999707     0.01700
C923        C  0.22704034  0.10242320  0.77979307    -0.14400
C924        C  0.22832240  0.10558272  0.79730387    -0.12100
C925        C  0.24400218  0.10429209  0.80575066     0.01200
C926        C  0.25848862  0.09930029  0.79655816    -0.24300
H927        H  0.21446457  0.10043700  0.71725496     0.09200
H928        H  0.21355516  0.09837256  0.74795232     0.12800
H929        H  0.26906467  0.09669430  0.71801109     0.11500
H930        H  0.28409638  0.09190836  0.74483152     0.12700
H931        H  0.28463252  0.09245260  0.77600404     0.11700
H932        H  0.21458157  0.10404756  0.77418048     0.08800
H933        H  0.21698553  0.10936001  0.80427555     0.12100
H934        H  0.27068136  0.09847809  0.80308344     0.13900
C935        C  0.27634735  0.07482767  0.64830993    -0.01600
C936        C  0.27160710  0.05851525  0.64276355    -0.09600
C937        C  0.28399030  0.04570776  0.63975144    -0.18400
C938        C  0.30161875  0.04877899  0.64235448     0.04000
C939        C  0.30627330  0.06535445  0.64794014     0.18200
C940        C  0.29378219  0.07805826  0.65070531    -0.19800
C941        C  0.32340621  0.06920392  0.65094410    -0.21100
C942        C  0.33612008  0.05695745  0.64856094    -0.19600
C943        C  0.33211758  0.04050587  0.64298235     0.19600
C944        C  0.31482185  0.03614052  0.63972744     0.01700
C945        C  0.31161488  0.01937030  0.63391912    -0.14400
C946        C  0.32496585  0.00763594  0.63123011    -0.12100
C947        C  0.34202065  0.01203770  0.63431651     0.01200
C948        C  0.34540671  0.02849188  0.64042687    -0.24300
H949        H  0.25827976  0.05557828  0.64092539     0.09200
H950        H  0.27939129  0.03346668  0.63557709     0.12800
H951        H  0.29772360  0.09054891  0.65509699     0.11500
H952        H  0.32702186  0.08182048  0.65524441     0.12700
H953        H  0.34922745  0.06042532  0.65103542     0.11700
H954        H  0.29891548  0.01500948  0.63119147     0.08800
H955        H  0.32187656  0.99496595  0.62670733     0.12100
H956        H  0.35849384  0.03218520  0.64266639     0.13900
C957        C  0.13949516  0.02802900  0.88229878    -0.01600
C958        C  0.13651620  0.04440994  0.87576623    -0.09600
C959        C  0.14989486  0.05578742  0.87321930    -0.18400
C960        C  0.16697624  0.05112592  0.87697168     0.04000
C961        C  0.17019589  0.03414862  0.88250165     0.18200
C962        C  0.15651694  0.02289875  0.88536190    -0.19800
C963        C  0.18704514  0.02857384  0.88515040    -0.21100
C964        C  0.20072586  0.03954781  0.88253180    -0.19600
C965        C  0.19794727  0.05661248  0.87780086     0.19600
C966        C  0.18094957  0.06266039  0.87528692     0.01700
C967        C  0.17859340  0.08012907  0.87157778    -0.14400
C968        C  0.19242150  0.09097888  0.86978832    -0.12100
C969        C  0.20927332  0.08502045  0.87145920     0.01200
C970        C  0.21196541  0.06772706  0.87563037    -0.24300
H971        H  0.12370019  0.04871367  0.87301535     0.09200
H972        H  0.14644908  0.06813072  0.86813996     0.12800
H973        H  0.15916594  0.01006700  0.88987187     0.11500
H974        H  0.18967784  0.01557858  0.88917382     0.12700
H975        H  0.21356146  0.03472674  0.88453130     0.11700
H976        H  0.16615311  0.08590484  0.87021381     0.08800
H977        H  0.18979302  0.10424069  0.86678115     0.12100
H978        H  0.22487705  0.06290480  0.87705940     0.13900
C979        C  0.37441865  0.97155674  0.66292620    -0.01600
C980        C  0.36453742  0.97896436  0.67596449    -0.09600
C981        C  0.36177891  0.97031380  0.69149442    -0.18400
C982        C  0.36873362  0.95379502  0.69444227     0.04000
C983        C  0.37966801  0.94691483  0.68163526     0.18200
C984        C  0.38254591  0.95584965  0.66630920    -0.19800
C985        C  0.38707035  0.93073118  0.68376620    -0.21100
C986        C  0.38310338  0.92074726  0.69784892    -0.19600
C987        C  0.37166635  0.92667809  0.71024578     0.19600
C988        C  0.36468888  0.94347262  0.70910762     0.01700
C989        C  0.35339951  0.94874066  0.72228423    -0.14400
C990        C  0.34832334  0.93736791  0.73521185    -0.12100
C991        C  0.35437426  0.92045858  0.73547154     0.01200
C992        C  0.36655442  0.91550465  0.72329710    -0.24300
H993        H  0.35813439  0.99108164  0.67383057     0.09200
H994        H  0.35362369  0.97655798  0.70069911     0.12800
H995        H  0.39062458  0.95013261  0.65660020     0.11500
H996        H  0.39554807  0.92548424  0.67414046     0.12700
H997        H  0.38861594  0.90803823  0.69875502     0.11700
H998        H  0.34784800  0.96138118  0.72256004     0.08800
H999        H  0.33896016  0.94156807  0.74449296     0.12100
H1000       H  0.37149023  0.90252438  0.72345438     0.13900
C1001       C  0.10562290  0.98931998  0.85292089    -0.01600
C1002       C  0.09369869  0.97659864  0.84932110    -0.09600
C1003       C  0.09409643  0.96752989  0.83388712    -0.18400
C1004       C  0.10678659  0.97060261  0.82149368     0.04000
C1005       C  0.11844222  0.98403644  0.82483266     0.18200
C1006       C  0.11759112  0.99342746  0.84031607    -0.19800
C1007       C  0.13139667  0.98742467  0.81306741    -0.21100
C1008       C  0.13365006  0.97719060  0.79861009    -0.19600
C1009       C  0.12288739  0.96338614  0.79535977     0.19600
C1010       C  0.10889475  0.96028135  0.80639289     0.01700
C1011       C  0.09809071  0.94651381  0.80217561    -0.14400
C1012       C  0.10180784  0.93554245  0.78846052    -0.12100
C1013       C  0.11637059  0.93782850  0.77841494     0.01200
C1014       C  0.12651508  0.95218887  0.78160641    -0.24300
H1015       H  0.08425716  0.97327855  0.85880006     0.09200
H1016       H  0.08469780  0.95772219  0.83234608     0.12800
H1017       H  0.12696085  0.00314345  0.84303797     0.11500
H1018       H  0.14025188  0.99770139  0.81537566     0.12700
H1019       H  0.14419594  0.97982678  0.79013656     0.11700
H1020       H  0.08692841  0.94357582  0.80954470     0.08800
H1021       H  0.09371708  0.92462148  0.78633063     0.12100
H1022       H  0.13777228  0.95418893  0.77389950     0.13900
C1023       C  0.27898757  0.89652152  0.75851694    -0.01600
C1024       C  0.27103985  0.89874200  0.74260643    -0.09600
C1025       C  0.25331365  0.90013858  0.74134519    -0.18400
C1026       C  0.24288965  0.89888515  0.75603174     0.04000
C1027       C  0.25107974  0.89652997  0.77214036     0.18200
C1028       C  0.26894366  0.89577105  0.77326906    -0.19800
C1029       C  0.24139553  0.89438353  0.78697210    -0.21100
C1030       C  0.22370829  0.89429216  0.78615778    -0.19600
C1031       C  0.21523303  0.89674237  0.77054934     0.19600
C1032       C  0.22467081  0.89939160  0.75529068     0.01700
C1033       C  0.21542808  0.90234766  0.73997618    -0.14400
C1034       C  0.19762534  0.90221429  0.73976798    -0.12100
C1035       C  0.18842246  0.89908361  0.75472820     0.01200
C1036       C  0.19733238  0.89647268  0.77010893    -0.24300
H1037       H  0.27857376  0.89915676  0.73102681     0.09200
H1038       H  0.24814514  0.90164010  0.72864115     0.12800
H1039       H  0.27501629  0.89367056  0.78558715     0.11500
H1040       H  0.24755391  0.89245069  0.79926439     0.12700
H1041       H  0.21659956  0.89231483  0.79784310     0.11700
H1042       H  0.22157564  0.90487069  0.72795182     0.08800
H1043       H  0.19103209  0.90436952  0.72775254     0.12100
H1044       H  0.19031700  0.89415343  0.78179492     0.13900
C1045       C  0.23539860  0.70359742  0.12289225    -0.01600
C1046       C  0.23272613  0.71232574  0.13827237    -0.09600
C1047       C  0.23384272  0.73003051  0.13905358    -0.18400
C1048       C  0.23784966  0.73973109  0.12437489     0.04000
C1049       C  0.24051801  0.73086799  0.10871258     0.18200
C1050       C  0.23924771  0.71294234  0.10809409    -0.19800
C1051       C  0.24439267  0.73996752  0.09381105    -0.21100
C1052       C  0.24546281  0.75771952  0.09409016    -0.19600
C1053       C  0.24279173  0.76682493  0.10930325     0.19600
C1054       C  0.23911759  0.75789741  0.12469425     0.01700
C1055       C  0.23673479  0.76754788  0.13978425    -0.14400
C1056       C  0.23728765  0.78525153  0.13950808    -0.12100
C1057       C  0.24044957  0.79407015  0.12432796     0.01200
C1058       C  0.24352042  0.78481664  0.10925261    -0.24300
H1059       H  0.22969432  0.70541360  0.14985140     0.09200
H1060       H  0.23144018  0.73566389  0.15138415     0.12800
H1061       H  0.24141360  0.70625602  0.09612959     0.11500
H1062       H  0.24649265  0.73331426  0.08182217     0.12700
H1063       H  0.24831799  0.76437437  0.08230743     0.11700
H1064       H  0.23426821  0.76188485  0.15204953     0.08800
H1065       H  0.23509741  0.79211937  0.15135870     0.12100
H1066       H  0.24598032  0.79159932  0.09744334     0.13900
C1067       C  0.10774609  0.91499521  0.97956265    -0.01600
C1068       C  0.09358823  0.91715750  0.96865618    -0.09600
C1069       C  0.09255566  0.93062004  0.95688450    -0.18400
C1070       C  0.10576033  0.94267043  0.95545823     0.04000
C1071       C  0.11972779  0.94104031  0.96698224     0.18200
C1072       C  0.12059598  0.92743013  0.97881588    -0.19800
C1073       C  0.13298786  0.95285460  0.96642934    -0.21100
C1074       C  0.13298742  0.96588704  0.95433126    -0.19600
C1075       C  0.11977595  0.96747202  0.94232804     0.19600
C1076       C  0.10582375  0.95606086  0.94286651     0.01700
C1077       C  0.09278067  0.95837679  0.93054054    -0.14400
C1078       C  0.09385541  0.97105154  0.91795980    -0.12100
C1079       C  0.10795354  0.98194770  0.91691941     0.01200
C1080       C  0.12068861  0.98021955  0.92959168    -0.24300
H1081       H  0.08330723  0.90804854  0.96900443     0.09200
H1082       H  0.08133958  0.93111328  0.94890882     0.12800
H1083       H  0.13156277  0.92664883  0.98711574     0.11500
H1084       H  0.14361655  0.95185690  0.97526957     0.12700
H1085       H  0.14361021  0.97460885  0.95415871     0.11700
H1086       H  0.08167701  0.95041699  0.93011660     0.08800
H1087       H  0.08365800  0.97213201  0.90863630     0.12100
H1088       H  0.13154218  0.98853331  0.92970227     0.13900
C1089       C  0.20618071  0.85896706  0.08421723    -0.01600
C1090       C  0.19831678  0.84553707  0.07540319    -0.09600
C1091       C  0.18555964  0.84860423  0.06319619    -0.18400
C1092       C  0.17990207  0.86537334  0.05941976     0.04000
C1093       C  0.18812635  0.87904909  0.06806684     0.18200
C1094       C  0.20116026  0.87576914  0.08025599    -0.19800
C1095       C  0.18303847  0.89590886  0.06472706    -0.21100
C1096       C  0.16994274  0.89949473  0.05313481    -0.19600
C1097       C  0.16140945  0.88633292  0.04461173     0.19600
C1098       C  0.16624130  0.86906674  0.04761463     0.01700
C1099       C  0.15690662  0.85629764  0.03894094    -0.14400
C1100       C  0.14332995  0.86049702  0.02794545    -0.12100
C1101       C  0.13869428  0.87753018  0.02475833     0.01200
C1102       C  0.14791629  0.89037620  0.03325430    -0.24300
H1103       H  0.20189541  0.83242974  0.07814341     0.09200
H1104       H  0.18021763  0.83753686  0.05708860     0.12800
H1105       H  0.20697687  0.88627653  0.08707577     0.11500
H1106       H  0.18917491  0.90643214  0.07121577     0.12700
H1107       H  0.16633944  0.91270429  0.05095083     0.11700
H1108       H  0.15965658  0.84289224  0.04053154     0.08800
H1109       H  0.13657274  0.85025244  0.02183451     0.12100
H1110       H  0.14436669  0.90363753  0.03135591     0.13900
C1111       C  0.33033738  0.61177617  0.02656074    -0.01600
C1112       C  0.31874231  0.62450218  0.02142315    -0.09600
C1113       C  0.30357151  0.62742524  0.03053201    -0.18400
C1114       C  0.29945823  0.61759685  0.04515143     0.04000
C1115       C  0.31071764  0.60392945  0.04952703     0.18200
C1116       C  0.32591019  0.60119807  0.04030967    -0.19800
C1117       C  0.30714388  0.59348025  0.06355728    -0.21100
C1118       C  0.29310592  0.59678774  0.07390070    -0.19600
C1119       C  0.28229473  0.61072338  0.07060716     0.19600
C1120       C  0.28504082  0.62115113  0.05598739     0.01700
C1121       C  0.27367343  0.63508117  0.05339191    -0.14400
C1122       C  0.26086455  0.63903428  0.06532935    -0.12100
C1123       C  0.25878112  0.62919398  0.08016629     0.01200
C1124       C  0.26924405  0.61471885  0.08235683    -0.24300
H1125       H  0.32186719  0.63289301  0.01090754     0.09200
H1126       H  0.29554764  0.63777970  0.02614362     0.12800
H1127       H  0.33471501  0.59120659  0.04429907     0.11500
H1128       H  0.31553867  0.58290875  0.06684008     0.12700
H1129       H  0.29100947  0.58868324  0.08491073     0.11700
H1130       H  0.27477437  0.64351883  0.04257567     0.08800
H1131       H  0.25305725  0.65033273  0.06330578     0.12100
H1132       H  0.26784219  0.60700777  0.09377040     0.13900
C1133       C  0.34342566  0.79799968  0.87619430    -0.01600
C1134       C  0.35789097  0.79992717  0.86589338    -0.09600
C1135       C  0.35906385  0.81347671  0.85422103    -0.18400
C1136       C  0.34556849  0.82544841  0.85222373     0.04000
C1137       C  0.33147058  0.82407342  0.86352821     0.18200
C1138       C  0.33068034  0.81066328  0.87549649    -0.19800
C1139       C  0.31766931  0.83542918  0.86210140    -0.21100
C1140       C  0.31698620  0.84740057  0.84899187    -0.19600
C1141       C  0.33020515  0.84853304  0.83709113     0.19600
C1142       C  0.34501697  0.83807115  0.83887020     0.01700
C1143       C  0.35819280  0.84024873  0.82672190    -0.14400
C1144       C  0.35620039  0.85146959  0.81281883    -0.12100
C1145       C  0.34104226  0.86079991  0.81051153     0.01200
C1146       C  0.32832552  0.85959208  0.82300331    -0.24300
H1147       H  0.36794214  0.79035935  0.86612744     0.09200
H1148       H  0.37029307  0.81374999  0.84633300     0.12800
H1149       H  0.31940804  0.80934230  0.88334427     0.11500
H1150       H  0.30696188  0.83457870  0.87076558     0.12700
H1151       H  0.30578337  0.85552173  0.84786879     0.11700
H1152       H  0.36999191  0.83312615  0.82739394     0.08800
H1153       H  0.36621832  0.85217089  0.80335807     0.12100
H1154       H  0.31659625  0.86685631  0.82141645     0.13900
C1155       C  0.34059296  0.71468998  0.93052692    -0.01600
C1156       C  0.35025897  0.71817889  0.94522681    -0.09600
C1157       C  0.35362171  0.70533696  0.95743928    -0.18400
C1158       C  0.34741965  0.68849341  0.95527597     0.04000
C1159       C  0.33767589  0.68513151  0.94031622     0.18200
C1160       C  0.33436728  0.69808730  0.92829946    -0.19800
C1161       C  0.33133893  0.66877035  0.93726186    -0.21100
C1162       C  0.33473435  0.65548040  0.94855792    -0.19600
C1163       C  0.34444179  0.65817669  0.96333853     0.19600
C1164       C  0.35067541  0.67476641  0.96712801     0.01700
C1165       C  0.35992147  0.67675279  0.98253926    -0.14400
C1166       C  0.36330650  0.66279587  0.99332761    -0.12100
C1167       C  0.35783664  0.64621420  0.98915699     0.01200
C1168       C  0.34813263  0.64421990  0.97416858    -0.24300
H1169       H  0.35529495  0.73083947  0.94726498     0.09200
H1170       H  0.36123952  0.70889079  0.96835577     0.12800
H1171       H  0.32692382  0.69511482  0.91698775     0.11500
H1172       H  0.32384380  0.66616167  0.92589938     0.12700
H1173       H  0.32979564  0.64293735  0.94563638     0.11700
H1174       H  0.36468025  0.68897234  0.98659810     0.08800
H1175       H  0.37026291  0.66516526  0.00504209     0.12100
H1176       H  0.34379326  0.63168223  0.97047816     0.13900
C1177       C  0.13012245  0.79031836  0.85098038    -0.01600
C1178       C  0.11667355  0.80218333  0.85119786    -0.09600
C1179       C  0.11596492  0.81543111  0.83918890    -0.18400
C1180       C  0.12866541  0.81698211  0.82645962     0.04000
C1181       C  0.14212602  0.80469645  0.82634475     0.18200
C1182       C  0.14280995  0.79175073  0.83860274    -0.19800
C1183       C  0.15485882  0.80524827  0.81392530    -0.21100
C1184       C  0.15464426  0.81785386  0.80154404    -0.19600
C1185       C  0.14182511  0.83034172  0.80143849     0.19600
C1186       C  0.12860337  0.83017742  0.81383845     0.01700
C1187       C  0.11610414  0.84332066  0.81308449    -0.14400
C1188       C  0.11696866  0.85619490  0.80071363    -0.12100
C1189       C  0.13020960  0.85627315  0.78875045     0.01200
C1190       C  0.14240430  0.84317823  0.78907092    -0.24300
H1191       H  0.10673110  0.80126616  0.86072027     0.09200
H1192       H  0.10530103  0.82414790  0.84009985     0.12800
H1193       H  0.15319788  0.78252135  0.83830687     0.11500
H1194       H  0.16506694  0.79583155  0.81376736     0.12700
H1195       H  0.16470921  0.81794621  0.79208406     0.11700
H1196       H  0.10568158  0.84412262  0.82199724     0.08800
H1197       H  0.10736642  0.86621906  0.80063904     0.12100
H1198       H  0.15265099  0.84311544  0.77979450     0.13900
C1199       C  0.11744659  0.77760343  0.92724939    -0.01600
C1200       C  0.12749627  0.77885306  0.94206290    -0.09600
C1201       C  0.12495549  0.79214138  0.95386559    -0.18400
C1202       C  0.11248726  0.80502252  0.95100513     0.04000
C1203       C  0.10206819  0.80347757  0.93614655     0.18200
C1204       C  0.10437747  0.78969854  0.92470040    -0.19800
C1205       C  0.08992718  0.81613816  0.93234263    -0.21100
C1206       C  0.08833005  0.83062882  0.94256908    -0.19600
C1207       C  0.09857815  0.83272729  0.95711074     0.19600
C1208       C  0.11045236  0.81974006  0.96186668     0.01700
C1209       C  0.11999342  0.82231496  0.97705844    -0.14400
C1210       C  0.11842174  0.83747123  0.98656371    -0.12100
C1211       C  0.10743912  0.85065464  0.98129077     0.01200
C1212       C  0.09728448  0.84795968  0.96669071    -0.24300
H1213       H  0.13776204  0.76977689  0.94428748     0.09200
H1214       H  0.13342322  0.79238924  0.96474471     0.12800
H1215       H  0.09671159  0.78905736  0.91315041     0.11500
H1216       H  0.08193330  0.81507669  0.92106282     0.12700
H1217       H  0.07913291  0.84038883  0.93894041     0.11700
H1218       H  0.12894851  0.81292472  0.98180449     0.08800
H1219       H  0.12641750  0.83912165  0.99765600     0.12100
H1220       H  0.08850791  0.85792627  0.96258577     0.13900
C1221       C  0.18620330  0.74529624  0.88780033    -0.01600
C1222       C  0.19425940  0.74891420  0.90334868    -0.09600
C1223       C  0.21196904  0.74958304  0.90447468    -0.18400
C1224       C  0.22231571  0.74648015  0.88999321     0.04000
C1225       C  0.21408476  0.74228859  0.87431023     0.18200
C1226       C  0.19618668  0.74183693  0.87332722    -0.19800
C1227       C  0.22376553  0.73877466  0.85968214    -0.21100
C1228       C  0.24146435  0.73948927  0.86023950    -0.19600
C1229       C  0.24993983  0.74383413  0.87541317     0.19600
C1230       C  0.24049416  0.74743862  0.89050870     0.01700
C1231       C  0.24967346  0.75196956  0.90543501    -0.14400
C1232       C  0.26742726  0.75277438  0.90539519    -0.12100
C1233       C  0.27668400  0.74903281  0.89058117     0.01200
C1234       C  0.26784141  0.74459546  0.87559769    -0.24300
H1235       H  0.18680294  0.75168452  0.91467562     0.09200
H1236       H  0.21712653  0.75264887  0.91687018     0.12800
H1237       H  0.19001539  0.73892179  0.86124904     0.11500
H1238       H  0.21760262  0.73549305  0.84770464     0.12700
H1239       H  0.24857543  0.73671292  0.84868388     0.11700
H1240       H  0.24354476  0.75502280  0.91736934     0.08800
H1241       H  0.27395808  0.75621039  0.91711727     0.12100
H1242       H  0.27490535  0.74173881  0.86402441     0.13900
C1243       C  0.12766640  0.63853853  0.79914056    -0.01600
C1244       C  0.13748923  0.63690143  0.81408170    -0.09600
C1245       C  0.13524023  0.64815976  0.82787992    -0.18400
C1246       C  0.12318537  0.66171172  0.82708698     0.04000
C1247       C  0.11253617  0.66264510  0.81233861     0.18200
C1248       C  0.11472295  0.65103006  0.79870548    -0.19800
C1249       C  0.10034670  0.67573048  0.81085379    -0.21100
C1250       C  0.09908438  0.68845699  0.82323658    -0.19600
C1251       C  0.10993316  0.68843312  0.83749399     0.19600
C1252       C  0.12182275  0.67481360  0.83992226     0.01700
C1253       C  0.13230298  0.67538158  0.85470121    -0.14400
C1254       C  0.13169625  0.68933843  0.86595250    -0.12100
C1255       C  0.12068237  0.70320929  0.86291696     0.01200
C1256       C  0.10948105  0.70238775  0.84890739    -0.24300
H1257       H  0.14756131  0.62737884  0.81480310     0.09200
H1258       H  0.14359235  0.64634014  0.83871134     0.12800
H1259       H  0.10705408  0.65248864  0.78722144     0.11500
H1260       H  0.09207894  0.67644866  0.79973563     0.12700
H1261       H  0.08986311  0.69868120  0.82138599     0.11700
H1262       H  0.14149289  0.66549085  0.85762115     0.08800
H1263       H  0.14059303  0.68969116  0.87656955     0.12100
H1264       H  0.10092076  0.71304922  0.84640086     0.13900
C1265       C  0.35416099  0.66562722  0.78105165    -0.01600
C1266       C  0.34395707  0.68009532  0.77844329    -0.09600
C1267       C  0.34407563  0.69349349  0.79008005    -0.18400
C1268       C  0.35420059  0.69263216  0.80503982     0.04000
C1269       C  0.36547965  0.67844120  0.80702721     0.18200
C1270       C  0.36559020  0.66520116  0.79485321    -0.19800
C1271       C  0.37568179  0.67702128  0.82170087    -0.21100
C1272       C  0.37397725  0.68871720  0.83502614    -0.19600
C1273       C  0.36214593  0.70216377  0.83389002     0.19600
C1274       C  0.35261823  0.70471636  0.81858355     0.01700
C1275       C  0.34112987  0.71870059  0.81787323    -0.14400
C1276       C  0.33804409  0.72869162  0.83224764    -0.12100
C1277       C  0.34650040  0.72534735  0.84765722     0.01200
C1278       C  0.35910402  0.71256951  0.84824550    -0.24300
H1279       H  0.33521451  0.68074425  0.76769495     0.09200
H1280       H  0.33545303  0.70389339  0.78734927     0.12800
H1281       H  0.37352497  0.65397343  0.79688282     0.11500
H1282       H  0.38447311  0.66637356  0.82321599     0.12700
H1283       H  0.38150056  0.68686507  0.84654156     0.11700
H1284       H  0.33389902  0.72198778  0.80661698     0.08800
H1285       H  0.32854887  0.73879152  0.83140949     0.12100
H1286       H  0.36584948  0.71009066  0.86012985     0.13900
C1287       C  0.28959365  0.61852365  0.75734185    -0.01600
C1288       C  0.28070520  0.63328070  0.76230420    -0.09600
C1289       C  0.26305142  0.63345256  0.76352648    -0.18400
C1290       C  0.25348309  0.61874649  0.75977627     0.04000
C1291       C  0.26250421  0.60352319  0.75540156     0.18200
C1292       C  0.28043959  0.60355457  0.75408936    -0.19800
C1293       C  0.25352390  0.58846214  0.75228738    -0.21100
C1294       C  0.23578514  0.58828193  0.75314250    -0.19600
C1295       C  0.22653698  0.60323622  0.75677871     0.19600
C1296       C  0.23529550  0.61870424  0.76008404     0.01700
C1297       C  0.22545887  0.63362754  0.76302912    -0.14400
C1298       C  0.20775772  0.63328574  0.76237866    -0.12100
C1299       C  0.19914501  0.61809152  0.75911391     0.01200
C1300       C  0.20857120  0.60298759  0.75664473    -0.24300
H1301       H  0.28744230  0.64494073  0.76519008     0.09200
H1302       H  0.25733303  0.64533808  0.76753464     0.12800
H1303       H  0.28723860  0.59197779  0.75053730     0.11500
H1304       H  0.26026117  0.57674878  0.74910539     0.12700
H1305       H  0.22923651  0.57643465  0.75058453     0.11700
H1306       H  0.23100011  0.64592410  0.76537400     0.08800
H1307       H  0.20072996  0.64510272  0.76431347     0.12100
H1308       H  0.20194893  0.59121583  0.75389980     0.13900
C1309       C  0.37005955  0.52396597  0.91514849    -0.01600
C1310       C  0.38507770  0.53183710  0.92076232    -0.09600
C1311       C  0.38485718  0.54466630  0.93322787    -0.18400
C1312       C  0.36946950  0.55036663  0.94076598     0.04000
C1313       C  0.35413999  0.54268498  0.93499403     0.18200
C1314       C  0.35452373  0.52972583  0.92221567    -0.19800
C1315       C  0.33857698  0.54790830  0.94218164    -0.21100
C1316       C  0.33793456  0.56035426  0.95504635    -0.19600
C1317       C  0.35282030  0.56808772  0.96112395     0.19600
C1318       C  0.36878851  0.56328553  0.95389963     0.01700
C1319       C  0.38341491  0.57160571  0.96018735    -0.14400
C1320       C  0.38234325  0.58370350  0.97331732    -0.12100
C1321       C  0.36673245  0.58806864  0.98103999     0.01200
C1322       C  0.35189879  0.58040838  0.97451256    -0.24300
H1323       H  0.39725456  0.52818874  0.91535337     0.09200
H1324       H  0.39704814  0.54980728  0.93673345     0.12800
H1325       H  0.34276241  0.52385615  0.91810138     0.11500
H1326       H  0.32678134  0.54221458  0.93791612     0.12700
H1327       H  0.32566526  0.56389883  0.96034983     0.11700
H1328       H  0.39597288  0.56905157  0.95524833     0.08800
H1329       H  0.39401539  0.58971384  0.97743545     0.12100
H1330       H  0.33970127  0.58362424  0.98016889     0.13900
C1331       C  0.35255823  0.58364022  0.79066895    -0.01600
C1332       C  0.34736742  0.58739364  0.80746741    -0.09600
C1333       C  0.34904394  0.57546772  0.82064500    -0.18400
C1334       C  0.35616480  0.55913111  0.81763833     0.04000
C1335       C  0.36151222  0.55526027  0.80063746     0.18200
C1336       C  0.35957059  0.56742396  0.78732941    -0.19800
C1337       C  0.36888934  0.53930343  0.79708949    -0.21100
C1338       C  0.37131267  0.52725968  0.81002491    -0.19600
C1339       C  0.36629164  0.53072918  0.82688818     0.19600
C1340       C  0.35841150  0.54661986  0.83091789     0.01700
C1341       C  0.35327912  0.54929850  0.84809709    -0.14400
C1342       C  0.35636505  0.53699343  0.86077462    -0.12100
C1343       C  0.36458667  0.52150064  0.85690279     0.01200
C1344       C  0.36926480  0.51842449  0.83977257    -0.24300
H1345       H  0.34182424  0.59973560  0.81053411     0.09200
H1346       H  0.34475239  0.57951559  0.83310019     0.12800
H1347       H  0.36360369  0.56429908  0.77443767     0.11500
H1348       H  0.37299686  0.53616639  0.78422776     0.12700
H1349       H  0.37726209  0.51513778  0.80681401     0.11700
H1350       H  0.34697285  0.56085959  0.85221425     0.08800
H1351       H  0.35267403  0.53992227  0.87379012     0.12100
H1352       H  0.37523889  0.50637274  0.83637166     0.13900
C1353       C  0.33641629  0.48029203  0.88663416    -0.01600
C1354       C  0.32937708  0.47162422  0.90051660    -0.09600
C1355       C  0.31455745  0.46197124  0.89855163    -0.18400
C1356       C  0.30651936  0.46027747  0.88238352     0.04000
C1357       C  0.31359496  0.46940455  0.86839281     0.18200
C1358       C  0.32824831  0.47944331  0.87068869    -0.19800
C1359       C  0.30645285  0.46786851  0.85202579    -0.21100
C1360       C  0.29280265  0.45704081  0.84908758    -0.19600
C1361       C  0.28579367  0.44754737  0.86245955     0.19600
C1362       C  0.29224236  0.44930998  0.87939520     0.01700
C1363       C  0.28443522  0.43957934  0.89242810    -0.14400
C1364       C  0.27156832  0.42785463  0.88860992    -0.12100
C1365       C  0.26594651  0.42547596  0.87174642     0.01200
C1366       C  0.27279156  0.43579839  0.85883629    -0.24300
H1367       H  0.33570732  0.47189389  0.91285319     0.09200
H1368       H  0.31007123  0.45546431  0.90978343     0.12800
H1369       H  0.33391644  0.48581529  0.85981783     0.11500
H1370       H  0.31175031  0.47476591  0.84130519     0.12700
H1371       H  0.28789499  0.45583747  0.83616251     0.11700
H1372       H  0.28828459  0.44044643  0.90565033     0.08800
H1373       H  0.26650636  0.42009846  0.89882742     0.12100
H1374       H  0.26852264  0.43414926  0.84572746     0.13900
C1375       C  0.23982081  0.38202204  0.80484838    -0.01600
C1376       C  0.25533062  0.38130943  0.79612299    -0.09600
C1377       C  0.25581214  0.38194089  0.77831661    -0.18400
C1378       C  0.24065947  0.38321835  0.76854546     0.04000
C1379       C  0.22488787  0.38346475  0.77743830     0.18200
C1380       C  0.22460936  0.38303928  0.79543996    -0.19800
C1381       C  0.20951965  0.38412163  0.76830448    -0.21100
C1382       C  0.20946966  0.38461720  0.75049306    -0.19600
C1383       C  0.22479186  0.38474895  0.74137733     0.19600
C1384       C  0.24061304  0.38419240  0.75029686     0.01700
C1385       C  0.25573203  0.38479387  0.74056386    -0.14400
C1386       C  0.25518026  0.38564790  0.72278054    -0.12100
C1387       C  0.23963020  0.38584267  0.71401037     0.01200
C1388       C  0.22443132  0.38543469  0.72337329    -0.24300
H1389       H  0.26724255  0.38041584  0.80311744     0.09200
H1390       H  0.26827054  0.38128692  0.77263608     0.12800
H1391       H  0.21253463  0.38338583  0.80212840     0.11500
H1392       H  0.19744510  0.38419841  0.77498382     0.12700
H1393       H  0.19735795  0.38504066  0.74380575     0.11700
H1394       H  0.26823144  0.38471863  0.74625899     0.08800
H1395       H  0.26709144  0.38591026  0.71583520     0.12100
H1396       H  0.21232474  0.38560000  0.71665534     0.13900
C1397       C  0.21798022  0.42658278  0.64110514    -0.01600
C1398       C  0.21499613  0.44080408  0.65165064    -0.09600
C1399       C  0.20277627  0.45323503  0.64724266    -0.18400
C1400       C  0.19282894  0.45167426  0.63218568     0.04000
C1401       C  0.19660547  0.43773104  0.62107423     0.18200
C1402       C  0.20922799  0.42557461  0.62546612    -0.19800
C1403       C  0.18708768  0.43540802  0.60609189    -0.21100
C1404       C  0.17319010  0.44593165  0.60242256    -0.19600
C1405       C  0.16857182  0.45922664  0.61350537     0.19600
C1406       C  0.17868368  0.46278045  0.62819950     0.01700
C1407       C  0.17364890  0.47679089  0.63859620    -0.14400
C1408       C  0.15853169  0.48594695  0.63524776    -0.12100
C1409       C  0.14797026  0.48141705  0.62153589     0.01200
C1410       C  0.15340128  0.46844265  0.61038993    -0.24300
H1411       H  0.22161884  0.44196088  0.66377376     0.09200
H1412       H  0.20087008  0.46350615  0.65624635     0.12800
H1413       H  0.21139305  0.41464356  0.61719941     0.11500
H1414       H  0.18998277  0.42492733  0.59747754     0.12700
H1415       H  0.16568599  0.44332639  0.59106610     0.11700
H1416       H  0.18085757  0.48062710  0.64969103     0.08800
H1417       H  0.15457113  0.49593674  0.64401769     0.12100
H1418       H  0.14533254  0.46498896  0.59966270     0.13900
C1419       C  0.11758779  0.52057620  0.65270067    -0.01600
C1420       C  0.10970682  0.51859304  0.66877991    -0.09600
C1421       C  0.11298420  0.52976111  0.68245750    -0.18400
C1422       C  0.12458119  0.54332324  0.68078397     0.04000
C1423       C  0.13291098  0.54504560  0.66474596     0.18200
C1424       C  0.12921001  0.53399957  0.65100037    -0.19800
C1425       C  0.14494906  0.55786528  0.66240906    -0.21100
C1426       C  0.14878216  0.56915771  0.67554382    -0.19600
C1427       C  0.14048192  0.56817169  0.69132239     0.19600
C1428       C  0.12825063  0.55527378  0.69429705     0.01700
C1429       C  0.12014197  0.55520521  0.71052178    -0.14400
C1430       C  0.12385519  0.56762192  0.72302753    -0.12100
C1431       C  0.13583724  0.58038773  0.71984279     0.01200
C1432       C  0.14421056  0.58031858  0.70400001    -0.24300
H1433       H  0.10101711  0.50826561  0.67110315     0.09200
H1434       H  0.10638573  0.52736060  0.69427941     0.12800
H1435       H  0.13541863  0.53620307  0.63891651     0.11500
H1436       H  0.15147318  0.55919159  0.65028864     0.12700
H1437       H  0.15815741  0.57894159  0.67323182     0.11700
H1438       H  0.11067428  0.54588928  0.71377161     0.08800
H1439       H  0.11718908  0.56734355  0.73513311     0.12100
H1440       H  0.15353055  0.59006697  0.70130962     0.13900
C1441       C  0.33403347  0.77553824  0.66842102    -0.01600
C1442       C  0.31888664  0.77769485  0.67759815    -0.09600
C1443       C  0.31818138  0.78853947  0.69176797    -0.18400
C1444       C  0.33266352  0.79778846  0.69705442     0.04000
C1445       C  0.34821133  0.79481211  0.68819119     0.18200
C1446       C  0.34878277  0.78366058  0.67414644    -0.19800
C1447       C  0.36295986  0.80352006  0.69291508    -0.21100
C1448       C  0.36247534  0.81571769  0.70580465    -0.19600
C1449       C  0.34723309  0.81948762  0.71427938     0.19600
C1450       C  0.33215771  0.81036028  0.71030608     0.01700
C1451       C  0.31711702  0.81473497  0.71930081    -0.14400
C1452       C  0.31689986  0.82818708  0.73103634    -0.12100
C1453       C  0.33164965  0.83751740  0.73435829     0.01200
C1454       C  0.34686957  0.83279504  0.72629234    -0.24300
H1455       H  0.30736290  0.77137181  0.67349760     0.09200
H1456       H  0.30600823  0.78975934  0.69798295     0.12800
H1457       H  0.36058571  0.78194676  0.66715610     0.11500
H1458       H  0.37486468  0.80120728  0.68628395     0.12700
H1459       H  0.37402047  0.82256197  0.70886812     0.11700
H1460       H  0.30521518  0.80832026  0.71725758     0.08800
H1461       H  0.30501695  0.83154618  0.73725242     0.12100
H1462       H  0.35835134  0.83995680  0.72884076     0.13900
C1463       C  0.34869447  0.70431676  0.64145639    -0.01600
C1464       C  0.36397207  0.70294933  0.65077313    -0.09600
C1465       C  0.36671541  0.68950427  0.66245192    -0.18400
C1466       C  0.35418951  0.67689142  0.66517978     0.04000
C1467       C  0.33938713  0.67760968  0.65462394     0.18200
C1468       C  0.33677369  0.69119594  0.64305773    -0.19800
C1469       C  0.32683433  0.66516978  0.65618606    -0.21100
C1470       C  0.32814858  0.65252853  0.66859770    -0.19600
C1471       C  0.34190940  0.65210311  0.68002167     0.19600
C1472       C  0.35534582  0.66403400  0.67835611     0.01700
C1473       C  0.36874666  0.66305688  0.69055321    -0.14400
C1474       C  0.36818612  0.65149262  0.70435559    -0.12100
C1475       C  0.35443580  0.64031813  0.70634332     0.01200
C1476       C  0.34172035  0.64035858  0.69367414    -0.24300
H1477       H  0.37347020  0.71281742  0.64973253     0.09200
H1478       H  0.37852994  0.68954128  0.66953002     0.12800
H1479       H  0.32498482  0.69196117  0.63581421     0.11500
H1480       H  0.31564660  0.66547870  0.64802557     0.12700
H1481       H  0.31793908  0.64339350  0.66969895     0.11700
H1482       H  0.37941795  0.67160557  0.69016487     0.08800
H1483       H  0.37813982  0.65190832  0.71397249     0.12100
H1484       H  0.33097224  0.63189095  0.69501940     0.13900
C1485       C  0.13753232  0.66347336  0.72286139    -0.01600
C1486       C  0.14691943  0.67831441  0.72563273    -0.09600
C1487       C  0.14625297  0.69173266  0.71394277    -0.18400
C1488       C  0.13633037  0.69056684  0.69885637     0.04000
C1489       C  0.12603273  0.67588577  0.69665323     0.18200
C1490       C  0.12662017  0.66259355  0.70869099    -0.19800
C1491       C  0.11570100  0.67425731  0.68213077    -0.21100
C1492       C  0.11583656  0.68661270  0.66938876    -0.19600
C1493       C  0.12640586  0.70082440  0.67080908     0.19600
C1494       C  0.13666467  0.70313702  0.68565106     0.01700
C1495       C  0.14727775  0.71761108  0.68632622    -0.14400
C1496       C  0.14795094  0.72904337  0.67269205    -0.12100
C1497       C  0.13803267  0.72654384  0.65802998     0.01200
C1498       C  0.12709069  0.71254512  0.65726033    -0.24300
H1499       H  0.15518882  0.67939799  0.73670127     0.09200
H1500       H  0.15395714  0.70264046  0.71691379     0.12800
H1501       H  0.11918998  0.65118822  0.70657438     0.11500
H1502       H  0.10771744  0.66317279  0.68044639     0.12700
H1503       H  0.10791516  0.68483261  0.65815285     0.11700
H1504       H  0.15546559  0.72032130  0.69704732     0.08800
H1505       H  0.15642591  0.73983426  0.67358788     0.12100
H1506       H  0.11932254  0.71056653  0.64594133     0.13900
C1507       C  0.12609664  0.80529291  0.64218944    -0.01600
C1508       C  0.11358069  0.80431347  0.65491526    -0.09600
C1509       C  0.11163823  0.81722415  0.66723278    -0.18400
C1510       C  0.12224570  0.83173835  0.66734407     0.04000
C1511       C  0.13425184  0.83322232  0.65384359     0.18200
C1512       C  0.13611279  0.82006883  0.64151966    -0.19800
C1513       C  0.14471155  0.84759027  0.65305222    -0.21100
C1514       C  0.14395731  0.86020460  0.66566407    -0.19600
C1515       C  0.13289787  0.85873874  0.67961646     0.19600
C1516       C  0.12173896  0.84455893  0.68056922     0.01700
C1517       C  0.11108646  0.84349724  0.69509413    -0.14400
C1518       C  0.11202631  0.85549383  0.70837804    -0.12100
C1519       C  0.12335184  0.86921680  0.70769126     0.01200
C1520       C  0.13344493  0.87098766  0.69297271    -0.24300
H1521       H  0.10562289  0.79313911  0.65579254     0.09200
H1522       H  0.10191123  0.81531052  0.67671196     0.12800
H1523       H  0.14583717  0.82106405  0.63176655     0.11500
H1524       H  0.15377705  0.84895474  0.64272921     0.12700
H1525       H  0.15245720  0.87097223  0.66473752     0.11700
H1526       H  0.10229280  0.83318754  0.69686542     0.08800
H1527       H  0.10413675  0.85369350  0.71956461     0.12100
H1528       H  0.14243096  0.88137827  0.69232337     0.13900
C1529       C  0.19288412  0.75879999  0.60767692    -0.01600
C1530       C  0.20167286  0.77398070  0.60484593    -0.09600
C1531       C  0.21939614  0.77390523  0.60319223    -0.18400
C1532       C  0.22891407  0.75849394  0.60414886     0.04000
C1533       C  0.21977769  0.74302056  0.60597580     0.18200
C1534       C  0.20198858  0.74332941  0.60794808    -0.19800
C1535       C  0.22847238  0.72734152  0.60613991    -0.21100
C1536       C  0.24613241  0.72668859  0.60510020    -0.19600
C1537       C  0.25557585  0.74171260  0.60433335     0.19600
C1538       C  0.24713241  0.75786348  0.60376786     0.01700
C1539       C  0.25732918  0.77265563  0.60370642    -0.14400
C1540       C  0.27505161  0.77142201  0.60510557    -0.12100
C1541       C  0.28321574  0.75547449  0.60606503     0.01200
C1542       C  0.27344677  0.74067421  0.60502434    -0.24300
H1543       H  0.19485526  0.78606157  0.60438318     0.09200
H1544       H  0.22527699  0.78611109  0.60123567     0.12800
H1545       H  0.19521153  0.73148604  0.60981355     0.11500
H1546       H  0.22157254  0.71548944  0.60728975     0.12700
H1547       H  0.25248214  0.71434716  0.60550476     0.11700
H1548       H  0.25196885  0.78536599  0.60338263     0.08800
H1549       H  0.28239455  0.78303312  0.60588322     0.12100
H1550       H  0.27969971  0.72830352  0.60596656     0.13900
C1551       C  0.37285972  0.90602285  0.52807029    -0.01600
C1552       C  0.35737481  0.91363388  0.53287419    -0.09600
C1553       C  0.35647376  0.92514722  0.54663666    -0.18400
C1554       C  0.37111264  0.92936589  0.55637501     0.04000
C1555       C  0.38680373  0.92153352  0.55159217     0.18200
C1556       C  0.38755375  0.91009645  0.53757381    -0.19800
C1557       C  0.40167038  0.92518881  0.56083347    -0.21100
C1558       C  0.40135673  0.93659912  0.57456588    -0.19600
C1559       C  0.38616055  0.94470657  0.57952625     0.19600
C1560       C  0.37080108  0.94109386  0.57059143     0.01700
C1561       C  0.35578565  0.94927466  0.57640555    -0.14400
C1562       C  0.35603298  0.96083080  0.59010525    -0.12100
C1563       C  0.37128294  0.96504691  0.59861569     0.01200
C1564       C  0.38624417  0.95639968  0.59337911    -0.24300
H1565       H  0.34587661  0.91092907  0.52571985     0.09200
H1566       H  0.34411618  0.93060827  0.54927849     0.12800
H1567       H  0.39961455  0.90417010  0.53419938     0.11500
H1568       H  0.41368503  0.91922716  0.55736043     0.12700
H1569       H  0.41313661  0.93915081  0.58132510     0.11700
H1570       H  0.34352227  0.94686601  0.57072549     0.08800
H1571       H  0.34391768  0.96598405  0.59413346     0.12100
H1572       H  0.39807311  0.95886232  0.60009099     0.13900
C1573       C  0.36617644  0.84901350  0.52144794    -0.01600
C1574       C  0.36729472  0.83191101  0.51617992    -0.09600
C1575       C  0.36490377  0.81852534  0.52781769    -0.18400
C1576       C  0.36157218  0.82181391  0.54531582     0.04000
C1577       C  0.36058119  0.83921957  0.55057016     0.18200
C1578       C  0.36264141  0.85252371  0.53865827    -0.19800
C1579       C  0.35773249  0.84330070  0.56775903    -0.21100
C1580       C  0.35577235  0.83052579  0.57988862    -0.19600
C1581       C  0.35636939  0.81329017  0.57515440     0.19600
C1582       C  0.35921908  0.80858290  0.55782003     0.01700
C1583       C  0.35931750  0.79088765  0.55385851    -0.14400
C1584       C  0.35621641  0.77852541  0.56650727    -0.12100
C1585       C  0.35325971  0.78333830  0.58353749     0.01200
C1586       C  0.35370769  0.80077271  0.58771186    -0.24300
H1587       H  0.36999417  0.82886360  0.50293252     0.09200
H1588       H  0.36594274  0.80573662  0.52280426     0.12800
H1589       H  0.36205150  0.86569068  0.54293340     0.11500
H1590       H  0.35705594  0.85650491  0.57188123     0.12700
H1591       H  0.35356606  0.83417944  0.59308699     0.11700
H1592       H  0.36136078  0.78625514  0.54102612     0.08800
H1593       H  0.35585636  0.76518595  0.56288989     0.12100
H1594       H  0.35129970  0.80474740  0.60078851     0.13900
C1595       C  0.25841864  0.87755502  0.43756117    -0.01600
C1596       C  0.26866181  0.89182825  0.43472255    -0.09600
C1597       C  0.28332491  0.89468274  0.44454959    -0.18400
C1598       C  0.28841292  0.88323045  0.45764734     0.04000
C1599       C  0.27729157  0.86953932  0.46145990     0.18200
C1600       C  0.26249920  0.86681361  0.45144606    -0.19800
C1601       C  0.28140962  0.85823364  0.47477534    -0.21100
C1602       C  0.29659547  0.85983455  0.48395343    -0.19600
C1603       C  0.30830633  0.87257478  0.47987505     0.19600
C1604       C  0.30433613  0.88452973  0.46670489     0.01700
C1605       C  0.31685043  0.89673401  0.46262618    -0.14400
C1606       C  0.33277243  0.89664275  0.47076780    -0.12100
C1607       C  0.33679298  0.88469826  0.48354770     0.01200
C1608       C  0.32426641  0.87297822  0.48837265    -0.24300
H1609       H  0.26582326  0.90043020  0.42422899     0.09200
H1610       H  0.29065542  0.90575808  0.44129283     0.12800
H1611       H  0.25470140  0.85574191  0.45387313     0.11500
H1612       H  0.27295352  0.84786135  0.47792591     0.12700
H1613       H  0.29944675  0.85067812  0.49397156     0.11700
H1614       H  0.31496674  0.90613580  0.45273241     0.08800
H1615       H  0.34219227  0.90581746  0.46678541     0.12100
H1616       H  0.32731872  0.86349670  0.49803358     0.13900
C1617       C  0.22775613  0.80604992  0.39426125    -0.01600
C1618       C  0.22538373  0.79791755  0.37849382    -0.09600
C1619       C  0.22650802  0.78018781  0.37713489    -0.18400
C1620       C  0.23029532  0.76993959  0.39158511     0.04000
C1621       C  0.23224401  0.77824144  0.40765945     0.18200
C1622       C  0.23091558  0.79612162  0.40885877    -0.19800
C1623       C  0.23572828  0.76866761  0.42240151    -0.21100
C1624       C  0.23743106  0.75099073  0.42153671    -0.19600
C1625       C  0.23587910  0.74243794  0.40587571     0.19600
C1626       C  0.23232959  0.75180487  0.39065404     0.01700
C1627       C  0.23116623  0.74261554  0.37512844    -0.14400
C1628       C  0.23320202  0.72493101  0.37477016    -0.12100
C1629       C  0.23648435  0.71570429  0.38978551     0.01200
C1630       C  0.23787233  0.72455084  0.40532553    -0.24300
H1631       H  0.22278713  0.80532730  0.36706310     0.09200
H1632       H  0.22446600  0.77494372  0.36455550     0.12800
H1633       H  0.23278943  0.80234689  0.42111492     0.11500
H1634       H  0.23719242  0.77490487  0.43470034     0.12700
H1635       H  0.24011921  0.74396756  0.43319486     0.11700
H1636       H  0.22873276  0.74868438  0.36299171     0.08800
H1637       H  0.23206171  0.71841719  0.36258779     0.12100
H1638       H  0.24034815  0.71750566  0.41702335     0.13900
C1639       C  0.11046419  0.59237833  0.53206460    -0.01600
C1640       C  0.10244051  0.57685794  0.52808682    -0.09600
C1641       C  0.10324169  0.56286074  0.53924080    -0.18400
C1642       C  0.11223448  0.56367079  0.55494158     0.04000
C1643       C  0.12084161  0.57907689  0.55874692     0.18200
C1644       C  0.12028789  0.59292940  0.54719617    -0.19800
C1645       C  0.12973916  0.58069483  0.57423407    -0.21100
C1646       C  0.12992326  0.56752167  0.58622309    -0.19600
C1647       C  0.12155845  0.55215074  0.58293227     0.19600
C1648       C  0.11289696  0.54987322  0.56706728     0.01700
C1649       C  0.10528684  0.53388463  0.56408146    -0.14400
C1650       C  0.10573888  0.52101025  0.57647461    -0.12100
C1651       C  0.11348959  0.52349933  0.59255590     0.01200
C1652       C  0.12168290  0.53911525  0.59548696    -0.24300
H1653       H  0.09567390  0.57515618  0.51617352     0.09200
H1654       H  0.09651464  0.55160287  0.53526049     0.12800
H1655       H  0.12726319  0.60440542  0.55025030     0.11500
H1656       H  0.13635848  0.59239303  0.57725907     0.12700
H1657       H  0.13667358  0.56938745  0.59818955     0.11700
H1658       H  0.09893445  0.53087624  0.55222372     0.08800
H1659       H  0.09989009  0.50896418  0.57330625     0.12100
H1660       H  0.12780720  0.54137572  0.60770308     0.13900
C1661       C  0.10816734  0.65695861  0.52728549    -0.01600
C1662       C  0.12041798  0.66846232  0.52151608    -0.09600
C1663       C  0.12291573  0.68410807  0.52988463    -0.18400
C1664       C  0.11301950  0.68887652  0.54428768     0.04000
C1665       C  0.09996658  0.67753261  0.54945753     0.18200
C1666       C  0.09780358  0.66173962  0.54110738    -0.19800
C1667       C  0.08937005  0.68182764  0.56320428    -0.21100
C1668       C  0.09175200  0.69688587  0.57231816    -0.19600
C1669       C  0.10499620  0.70794933  0.56815674     0.19600
C1670       C  0.11577568  0.70422050  0.55400165     0.01700
C1671       C  0.12921166  0.71567579  0.55069672    -0.14400
C1672       C  0.13227762  0.72966870  0.56148530    -0.12100
C1673       C  0.12192784  0.73296977  0.57574903     0.01200
C1674       C  0.10797174  0.72230370  0.57861999    -0.24300
H1675       H  0.12861557  0.66503370  0.51090350     0.09200
H1676       H  0.13281247  0.69212462  0.52491711     0.12800
H1677       H  0.08816094  0.65298909  0.54553858     0.11500
H1678       H  0.07927815  0.67334909  0.56709961     0.12700
H1679       H  0.08345347  0.69965280  0.58304570     0.11700
H1680       H  0.13798627  0.71376152  0.54027494     0.08800
H1681       H  0.14325757  0.73754634  0.55903402     0.12100
H1682       H  0.09999374  0.72453465  0.58971498     0.13900
C1683       C  0.20427909  0.64860330  0.42632612    -0.01600
C1684       C  0.20898058  0.63965565  0.44114833    -0.09600
C1685       C  0.19671724  0.63538939  0.45348652    -0.18400
C1686       C  0.17928450  0.63990790  0.45128157     0.04000
C1687       C  0.17466917  0.64870246  0.43603852     0.18200
C1688       C  0.18704400  0.65289703  0.42389035    -0.19800
C1689       C  0.15769868  0.65341001  0.43295257    -0.21100
C1690       C  0.14510727  0.64970960  0.44475867    -0.19600
C1691       C  0.14912077  0.64115685  0.45996729     0.19600
C1692       C  0.16623044  0.63608780  0.46350627     0.01700
C1693       C  0.16940832  0.62746955  0.47910872    -0.14400
C1694       C  0.15615201  0.62389017  0.49051386    -0.12100
C1695       C  0.13924214  0.62875415  0.48686054     0.01200
C1696       C  0.13599039  0.63754411  0.47156830    -0.24300
H1697       H  0.22217624  0.63609499  0.44329392     0.09200
H1698       H  0.20123921  0.62860264  0.46462581     0.12800
H1699       H  0.18315246  0.65962682  0.41237931     0.11500
H1700       H  0.15412725  0.66007301  0.42131048     0.12700
H1701       H  0.13209938  0.65357737  0.44195679     0.11700
H1702       H  0.18201530  0.62333369  0.48284088     0.08800
H1703       H  0.15926223  0.61739777  0.50235105     0.12100
H1704       H  0.12310760  0.64129215  0.46835620     0.13900
C1705       C  0.26996666  0.33839671  0.86722114    -0.01600
C1706       C  0.28130735  0.33760544  0.88105181    -0.09600
C1707       C  0.29222223  0.32355159  0.88311569    -0.18400
C1708       C  0.29230386  0.30999658  0.87110878     0.04000
C1709       C  0.28008824  0.31053346  0.85764054     0.18200
C1710       C  0.26895547  0.32451137  0.85598939    -0.19800
C1711       C  0.27964127  0.29758321  0.84531500    -0.21100
C1712       C  0.29198144  0.28478524  0.84522618    -0.19600
C1713       C  0.30486127  0.28451588  0.85762725     0.19600
C1714       C  0.30473953  0.29656927  0.87125841     0.01700
C1715       C  0.31768026  0.29520062  0.88383780    -0.14400
C1716       C  0.33111295  0.28353902  0.88194202    -0.12100
C1717       C  0.33196434  0.27287433  0.86758419     0.01200
C1718       C  0.31841052  0.27286072  0.85591333    -0.24300
H1719       H  0.28203634  0.34807217  0.89008776     0.09200
H1720       H  0.30088074  0.32400406  0.89382669     0.12800
H1721       H  0.26001623  0.32493441  0.84538214     0.11500
H1722       H  0.27017885  0.29781120  0.83518176     0.12700
H1723       H  0.29182062  0.27541182  0.83501348     0.11700
H1724       H  0.31809611  0.30333674  0.89495450     0.08800
H1725       H  0.34132605  0.28351309  0.89129714     0.12100
H1726       H  0.31883758  0.26435366  0.84495694     0.13900
C1727       C  0.29459202  0.13761804  0.86840297    -0.01600
C1728       C  0.29758824  0.14687236  0.88349094    -0.09600
C1729       C  0.31166974  0.15778769  0.88490683    -0.18400
C1730       C  0.32312483  0.15998870  0.87109125     0.04000
C1731       C  0.32050609  0.14980818  0.85624766     0.18200
C1732       C  0.30656568  0.13870000  0.85515768    -0.19800
C1733       C  0.33125112  0.15143477  0.84210105    -0.21100
C1734       C  0.34392981  0.16368134  0.84189278    -0.19600
C1735       C  0.34635387  0.17454894  0.85589772     0.19600
C1736       C  0.33644126  0.17250721  0.87096749     0.01700
C1737       C  0.33980452  0.18367088  0.88482609    -0.14400
C1738       C  0.35136386  0.19716409  0.88318896    -0.12100
C1739       C  0.36012062  0.19989339  0.86781119     0.01200
C1740       C  0.35803644  0.18802401  0.85450739    -0.24300
H1741       H  0.28855574  0.14635021  0.89391678     0.09200
H1742       H  0.31286482  0.16489312  0.89666859     0.12800
H1743       H  0.30446916  0.13160239  0.84342581     0.11500
H1744       H  0.32941167  0.14360908  0.83080778     0.12700
H1745       H  0.35155594  0.16501558  0.83044492     0.11700
H1746       H  0.33322464  0.18265169  0.89686416     0.08800
H1747       H  0.35278245  0.20602274  0.89373664     0.12100
H1748       H  0.36475649  0.18988155  0.84256211     0.13900
C1749       C  0.33055847  0.22289101  0.65862737    -0.01600
C1750       C  0.32029575  0.22150408  0.67313194    -0.09600
C1751       C  0.30663565  0.21030748  0.67336143    -0.18400
C1752       C  0.30300263  0.19983505  0.65907893     0.04000
C1753       C  0.31312430  0.20176040  0.64415151     0.18200
C1754       C  0.32665593  0.21333525  0.64400803    -0.19800
C1755       C  0.31003854  0.19173364  0.62965804    -0.21100
C1756       C  0.29751707  0.17933116  0.62987116    -0.19600
C1757       C  0.28784351  0.17661997  0.64460839     0.19600
C1758       C  0.29017859  0.18706918  0.65931362     0.01700
C1759       C  0.28007918  0.18377346  0.67387083    -0.14400
C1760       C  0.26904199  0.16997582  0.67419526    -0.12100
C1761       C  0.26746811  0.15922695  0.65999346     0.01200
C1762       C  0.27639203  0.16298832  0.64500490    -0.24300
H1763       H  0.32298153  0.22896932  0.68448968     0.09200
H1764       H  0.29943930  0.20991493  0.68505190     0.12800
H1765       H  0.33458688  0.21439486  0.63273061     0.11500
H1766       H  0.31763414  0.19321688  0.61820889     0.12700
H1767       H  0.29571807  0.17148089  0.61859013     0.11700
H1768       H  0.28077438  0.19124461  0.68541653     0.08800
H1769       H  0.26207913  0.16741281  0.68584521     0.12100
H1770       H  0.27514048  0.15473747  0.63392786     0.13900
C1771       C  0.35414484  0.29910614  0.64628623    -0.01600
C1772       C  0.35588193  0.31322343  0.65719931    -0.09600
C1773       C  0.34412595  0.32683034  0.65671578    -0.18400
C1774       C  0.32998128  0.32661906  0.64541791     0.04000
C1775       C  0.32891802  0.31276797  0.63367292     0.18200
C1776       C  0.34100746  0.29937244  0.63407904    -0.19800
C1777       C  0.31527723  0.31185704  0.62214969    -0.21100
C1778       C  0.30220605  0.32394085  0.62253112    -0.19600
C1779       C  0.30241145  0.33730053  0.63442630     0.19600
C1780       C  0.31646517  0.33912698  0.64580610     0.01700
C1781       C  0.31592529  0.35295201  0.65751036    -0.14400
C1782       C  0.30165471  0.36384578  0.65845289    -0.12100
C1783       C  0.28751220  0.36144007  0.64773118     0.01200
C1784       C  0.28824540  0.34840465  0.63543971    -0.24300
H1785       H  0.36590935  0.31338474  0.66675043     0.09200
H1786       H  0.34606931  0.33700976  0.66578445     0.12800
H1787       H  0.33947391  0.28853120  0.62559064     0.11500
H1788       H  0.31443974  0.30140930  0.61309046     0.12700
H1789       H  0.29160167  0.32254748  0.61374097     0.11700
H1790       H  0.32611236  0.35535223  0.66644693     0.08800
H1791       H  0.30140535  0.37375249  0.66813450     0.12100
H1792       H  0.27738300  0.34637762  0.62710078     0.13900
C1793       C  0.38512930  0.25186991  0.80339714    -0.01600
C1794       C  0.39857211  0.24383170  0.79468320    -0.09600
C1795       C  0.39983465  0.24503951  0.77678973    -0.18400
C1796       C  0.38757495  0.25434294  0.76711844     0.04000
C1797       C  0.37433508  0.26285132  0.77623965     0.18200
C1798       C  0.37331670  0.26160161  0.79405695    -0.19800
C1799       C  0.36181178  0.27225579  0.76755506    -0.21100
C1800       C  0.36162567  0.27281855  0.74985609    -0.19600
C1801       C  0.37405293  0.26412541  0.74041490     0.19600
C1802       C  0.38752942  0.25514214  0.74878765     0.01700
C1803       C  0.39998445  0.24706678  0.73836684    -0.14400
C1804       C  0.39851971  0.24721267  0.72044630    -0.12100
C1805       C  0.38459142  0.25526874  0.71251059     0.01200
C1806       C  0.37270058  0.26401799  0.72257184    -0.24300
H1807       H  0.40794144  0.23634061  0.80166824     0.09200
H1808       H  0.41030620  0.23831891  0.77084747     0.12800
H1809       H  0.36297816  0.26805552  0.80068187     0.11500
H1810       H  0.35180566  0.27888217  0.77449812     0.12700
H1811       H  0.35147206  0.27984703  0.74349244     0.11700
H1812       H  0.41078779  0.24032771  0.74371497     0.08800
H1813       H  0.40793791  0.24048627  0.71282856     0.12100
H1814       H  0.36205953  0.27054495  0.71645340     0.13900
C1815       C  0.46265520  0.08215248  0.62769461    -0.01600
C1816       C  0.45719686  0.07537409  0.64342657    -0.09600
C1817       C  0.44512561  0.06226391  0.64417206    -0.18400
C1818       C  0.43763384  0.05552578  0.62915048     0.04000
C1819       C  0.44283291  0.06260535  0.61326704     0.18200
C1820       C  0.45495100  0.07578947  0.61270912    -0.19800
C1821       C  0.43569776  0.05668724  0.59795385    -0.21100
C1822       C  0.42354835  0.04388433  0.59801506    -0.19600
C1823       C  0.41813016  0.03658422  0.61339114     0.19600
C1824       C  0.42501613  0.04226762  0.62922893     0.01700
C1825       C  0.41888192  0.03441740  0.64432826    -0.14400
C1826       C  0.40659846  0.02144421  0.64365179    -0.12100
C1827       C  0.40002289  0.01570459  0.62795842     0.01200
C1828       C  0.40583643  0.02359010  0.61291439    -0.24300
H1829       H  0.46182553  0.08052064  0.65539002     0.09200
H1830       H  0.44165666  0.05785693  0.65673785     0.12800
H1831       H  0.45810324  0.08138534  0.60046601     0.11500
H1832       H  0.43953926  0.06201997  0.58578688     0.12700
H1833       H  0.41834521  0.03964062  0.58588653     0.11700
H1834       H  0.42343758  0.03797527  0.65685141     0.08800
H1835       H  0.40250919  0.01564687  0.65549418     0.12100
H1836       H  0.40064340  0.01974938  0.60065476     0.13900
C1837       C  0.46361952  0.14626368  0.62506371    -0.01600
C1838       C  0.47083670  0.16054344  0.63304316    -0.09600
C1839       C  0.46152045  0.17587783  0.63485667    -0.18400
C1840       C  0.44448418  0.17736301  0.62892466     0.04000
C1841       C  0.43751304  0.16305168  0.62027433     0.18200
C1842       C  0.44714555  0.14798840  0.61813923    -0.19800
C1843       C  0.42068220  0.16353774  0.61433338    -0.21100
C1844       C  0.41027530  0.17760274  0.61753449    -0.19600
C1845       C  0.41650720  0.19171429  0.62646919     0.19600
C1846       C  0.43384545  0.19214222  0.63179979     0.01700
C1847       C  0.43948817  0.20713615  0.64018998    -0.14400
C1848       C  0.42812364  0.22059579  0.64401262    -0.12100
C1849       C  0.41083112  0.21944621  0.63975311     0.01200
C1850       C  0.40526071  0.20514841  0.63061054    -0.24300
H1851       H  0.48347661  0.15969412  0.63856284     0.09200
H1852       H  0.46774544  0.18615498  0.64150467     0.12800
H1853       H  0.44149539  0.13733225  0.61142460     0.11500
H1854       H  0.41533112  0.15270041  0.60764741     0.12700
H1855       H  0.39713559  0.17730260  0.61325327     0.11700
H1856       H  0.45252431  0.20864381  0.64424373     0.08800
H1857       H  0.43269747  0.23152704  0.65110202     0.12100
H1858       H  0.39191032  0.20424940  0.62713141     0.13900
C1859       C  0.46685634  0.40996926  0.88849999    -0.01600
C1860       C  0.46183289  0.41658550  0.87255933    -0.09600
C1861       C  0.44877595  0.42901711  0.87126979    -0.18400
C1862       C  0.44007505  0.43519520  0.88596524     0.04000
C1863       C  0.44484591  0.42804417  0.90200882     0.18200
C1864       C  0.45801254  0.41570136  0.90311235    -0.19800
C1865       C  0.43645913  0.43324786  0.91695888    -0.21100
C1866       C  0.42338183  0.44536522  0.91637983    -0.19600
C1867       C  0.41843236  0.45287090  0.90086756     0.19600
C1868       C  0.42678958  0.44805963  0.88543992     0.01700
C1869       C  0.42138622  0.45632219  0.87025064    -0.14400
C1870       C  0.40829051  0.46870437  0.87037216    -0.12100
C1871       C  0.40000253  0.47354959  0.88564610     0.01200
C1872       C  0.40510262  0.46513474  0.90077315    -0.24300
H1873       H  0.46831140  0.41246574  0.86104103     0.09200
H1874       H  0.44576660  0.43359484  0.85859871     0.12800
H1875       H  0.46129319  0.41042688  0.91552171     0.11500
H1876       H  0.44000228  0.42783917  0.92924135     0.12700
H1877       H  0.41714584  0.44897201  0.92821821     0.11700
H1878       H  0.42701731  0.45339411  0.85801485     0.08800
H1879       H  0.40443760  0.47399001  0.85819910     0.12100
H1880       H  0.39861162  0.46814842  0.91263590     0.13900
C1881       C  0.47280669  0.35220847  0.88464332    -0.01600
C1882       C  0.45691120  0.35587936  0.87723020    -0.09600
C1883       C  0.44482605  0.34309914  0.87465681    -0.18400
C1884       C  0.44815482  0.32593449  0.87938388     0.04000
C1885       C  0.46438610  0.32206234  0.88654862     0.18200
C1886       C  0.47642816  0.33514040  0.88924370    -0.19800
C1887       C  0.46849806  0.30513439  0.89088678    -0.21100
C1888       C  0.45696022  0.29195539  0.88801827    -0.19600
C1889       C  0.44080003  0.29532610  0.88105029     0.19600
C1890       C  0.43607359  0.31246485  0.87700963     0.01700
C1891       C  0.41941519  0.31540261  0.87077883    -0.14400
C1892       C  0.40826119  0.30194312  0.86790158    -0.12100
C1893       C  0.41307339  0.28491565  0.87105083     0.01200
C1894       C  0.42936718  0.28171034  0.87795184    -0.24300
H1895       H  0.45351851  0.36884339  0.87374923     0.09200
H1896       H  0.43300056  0.34709410  0.86882556     0.12800
H1897       H  0.48872432  0.33194998  0.89476943     0.11500
H1898       H  0.48083896  0.30201638  0.89635938     0.12700
H1899       H  0.46071403  0.27901775  0.89129964     0.11700
H1900       H  0.41455729  0.32800166  0.86799828     0.08800
H1901       H  0.39571446  0.30498283  0.86289036     0.12100
H1902       H  0.43323661  0.26867537  0.88067712     0.13900
C1903       C  0.56907772  0.37163636  0.78476677    -0.01600
C1904       C  0.55326972  0.36346443  0.78468044    -0.09600
C1905       C  0.54120198  0.36666931  0.79762184    -0.18400
C1906       C  0.54447748  0.37843141  0.81101949     0.04000
C1907       C  0.56008394  0.38750096  0.81032760     0.18200
C1908       C  0.57220979  0.38386785  0.79750140    -0.19800
C1909       C  0.56377128  0.39981055  0.82276103    -0.21100
C1910       C  0.55270578  0.40280658  0.83632433    -0.19600
C1911       C  0.53776077  0.39337134  0.83804157     0.19600
C1912       C  0.53320442  0.38122751  0.82532089     0.01700
C1913       C  0.51795597  0.37201976  0.82793935    -0.14400
C1914       C  0.50827579  0.37410679  0.84297828    -0.12100
C1915       C  0.51335772  0.38548182  0.85585456     0.01200
C1916       C  0.52779036  0.39552149  0.85286838    -0.24300
H1917       H  0.55056181  0.35390706  0.77504810     0.09200
H1918       H  0.52953657  0.35955229  0.79700536     0.12800
H1919       H  0.58435555  0.39033897  0.79764215     0.11500
H1920       H  0.57549273  0.40697082  0.82217816     0.12700
H1921       H  0.55617473  0.41219739  0.84588602     0.11700
H1922       H  0.51357543  0.36263626  0.81887694     0.08800
H1923       H  0.49727644  0.36611999  0.84492403     0.12100
H1924       H  0.53175012  0.40458850  0.86255606     0.13900
C1925       C  0.57079335  0.14248433  0.71835348    -0.01600
C1926       C  0.57156466  0.14987458  0.70200176    -0.09600
C1927       C  0.56003348  0.14555967  0.68910447    -0.18400
C1928       C  0.54704609  0.13359082  0.69200451     0.04000
C1929       C  0.54614121  0.12609961  0.70858618     0.18200
C1930       C  0.55801986  0.13048814  0.72153308    -0.19800
C1931       C  0.53328246  0.11437795  0.71214189    -0.21100
C1932       C  0.52113536  0.11023697  0.69978407    -0.19600
C1933       C  0.52163064  0.11746760  0.68338693     0.19600
C1934       C  0.53479130  0.12899386  0.67914529     0.01700
C1935       C  0.53508794  0.13537877  0.66220873    -0.14400
C1936       C  0.52266276  0.13084103  0.65018013    -0.12100
C1937       C  0.50924680  0.11994863  0.65448492     0.01200
C1938       C  0.50898214  0.11325567  0.67123535    -0.24300
H1939       H  0.58126067  0.15914470  0.69904465     0.09200
H1940       H  0.56154185  0.15198747  0.67703283     0.12800
H1941       H  0.55727109  0.12462423  0.73406147     0.11500
H1942       H  0.53246946  0.10852105  0.72466544     0.12700
H1943       H  0.51125021  0.10128563  0.70309706     0.11700
H1944       H  0.54490838  0.14376526  0.65775049     0.08800
H1945       H  0.52389748  0.13577202  0.63733868     0.12100
H1946       H  0.49879797  0.10488394  0.67504069     0.13900
C1947       C  0.60508002  0.20936242  0.75348699    -0.01600
C1948       C  0.58957781  0.21793425  0.75619159    -0.09600
C1949       C  0.58860963  0.23581228  0.75541725    -0.18400
C1950       C  0.60323994  0.24567438  0.75196992     0.04000
C1951       C  0.61888734  0.23678960  0.74926806     0.18200
C1952       C  0.61962962  0.21893041  0.75001723    -0.19800
C1953       C  0.63381338  0.24573729  0.74587259    -0.21100
C1954       C  0.63367770  0.26342519  0.74538451    -0.19600
C1955       C  0.61859857  0.27262410  0.74822257     0.19600
C1956       C  0.60306995  0.26396512  0.75130978     0.01700
C1957       C  0.58819471  0.27405630  0.75375702    -0.14400
C1958       C  0.58888728  0.29193984  0.75366581    -0.12100
C1959       C  0.60437476  0.30028806  0.75122601     0.01200
C1960       C  0.61909419  0.29050828  0.74824930    -0.24300
H1961       H  0.57813237  0.21079592  0.75877371     0.09200
H1962       H  0.57627786  0.24155133  0.75761860     0.12800
H1963       H  0.63170060  0.21243178  0.74788502     0.11500
H1964       H  0.64574534  0.23900049  0.74373399     0.12700
H1965       H  0.64551202  0.26997104  0.74291342     0.11700
H1966       H  0.57589133  0.26849756  0.75591822     0.08800
H1967       H  0.57732509  0.29925402  0.75588296     0.12100
H1968       H  0.63110985  0.29686212  0.74611531     0.13900
C1969       C  0.71289589  0.14398899  0.65579908    -0.01600
C1970       C  0.69904244  0.13305235  0.65397965    -0.09600
C1971       C  0.68662571  0.13222276  0.66670959    -0.18400
C1972       C  0.68779167  0.14240052  0.68165540     0.04000
C1973       C  0.70224655  0.15303160  0.68354375     0.18200
C1974       C  0.71454916  0.15370117  0.67070982    -0.19800
C1975       C  0.70423858  0.16324689  0.69807230    -0.21100
C1976       C  0.69189264  0.16354498  0.71067720    -0.19600
C1977       C  0.67727083  0.15366442  0.70900599     0.19600
C1978       C  0.67504882  0.14274001  0.69462510     0.01700
C1979       C  0.65998931  0.13299886  0.69372344    -0.14400
C1980       C  0.64748355  0.13451375  0.70631035    -0.12100
C1981       C  0.64960749  0.14576551  0.72004410     0.01200
C1982       C  0.66462528  0.15504380  0.72148226    -0.24300
H1983       H  0.69760269  0.12539239  0.64252258     0.09200
H1984       H  0.67619994  0.12369183  0.66437085     0.12800
H1985       H  0.72534697  0.16210275  0.67222778     0.11500
H1986       H  0.71531021  0.17127011  0.69957753     0.12700
H1987       H  0.69365617  0.17179707  0.72167461     0.11700
H1988       H  0.65734513  0.12437339  0.68332468     0.08800
H1989       H  0.63585585  0.12729909  0.70497482     0.12100
H1990       H  0.66631244  0.16370817  0.73218315     0.13900
C1991       C  0.69331817  0.36384267  0.64169577    -0.01600
C1992       C  0.69294819  0.37781558  0.65295201    -0.09600
C1993       C  0.67977757  0.37986162  0.66491428    -0.18400
C1994       C  0.66652068  0.36780366  0.66617773     0.04000
C1995       C  0.66635424  0.35430766  0.65396831     0.18200
C1996       C  0.67955659  0.35254092  0.64186888    -0.19800
C1997       C  0.65345783  0.34211466  0.65442787    -0.21100
C1998       C  0.64113545  0.34254435  0.66718061    -0.19600
C1999       C  0.64136430  0.35514626  0.67989718     0.19600
C2000       C  0.65384519  0.36817884  0.67944762     0.01700
C2001       C  0.65347021  0.38050907  0.69273267    -0.14400
C2002       C  0.64177458  0.37941319  0.70624655    -0.12100
C2003       C  0.62994235  0.36612787  0.70698070     0.01200
C2004       C  0.62958670  0.35431121  0.69345981    -0.24300
H2005       H  0.70337113  0.38676449  0.65313850     0.09200
H2006       H  0.68063713  0.39067259  0.67340240     0.12800
H2007       H  0.67965707  0.34165633  0.63328384     0.11500
H2008       H  0.65315282  0.33186909  0.64510208     0.12700
H2009       H  0.63161031  0.33263356  0.66736456     0.11700
H2010       H  0.66241974  0.39083084  0.69332310     0.08800
H2011       H  0.64250110  0.38862393  0.71656700     0.12100
H2012       H  0.62062614  0.34388486  0.69389995     0.13900
C2013       C  0.73462698  0.29432517  0.61659441    -0.01600
C2014       C  0.73842623  0.28659400  0.60089504    -0.09600
C2015       C  0.73960265  0.26879674  0.59953758    -0.18400
C2016       C  0.73692430  0.25820505  0.61394198     0.04000
C2017       C  0.73215828  0.26621635  0.62958412     0.18200
C2018       C  0.73111759  0.28404028  0.63075427    -0.19800
C2019       C  0.72888444  0.25644766  0.64414648    -0.21100
C2020       C  0.73063270  0.23882627  0.64368256    -0.19600
C2021       C  0.73586588  0.23055888  0.62869473     0.19600
C2022       C  0.73905691  0.24004223  0.61355362     0.01700
C2023       C  0.74460092  0.23091873  0.59888583    -0.14400
C2024       C  0.74697065  0.21317424  0.59934729    -0.12100
C2025       C  0.74371194  0.20400186  0.61431906     0.01200
C2026       C  0.73808499  0.21280156  0.62888263    -0.24300
H2027       H  0.74113415  0.29434266  0.58977984     0.09200
H2028       H  0.74287503  0.26372587  0.58713862     0.12800
H2029       H  0.72795834  0.28996675  0.64290820     0.11500
H2030       H  0.72512563  0.26249908  0.65605281     0.12700
H2031       H  0.72813508  0.23162692  0.65522820     0.11700
H2032       H  0.74736112  0.23714514  0.58693912     0.08800
H2033       H  0.75120397  0.20659209  0.58790482     0.12100
H2034       H  0.73556196  0.20579504  0.64055303     0.13900
C2035       C  0.84523336  0.37401306  0.52877420    -0.01600
C2036       C  0.84841224  0.36446860  0.54366085    -0.09600
C2037       C  0.83558619  0.36131095  0.55561116    -0.18400
C2038       C  0.81876010  0.36744651  0.55315119     0.04000
C2039       C  0.81528997  0.37674195  0.53791113     0.18200
C2040       C  0.82842543  0.37998766  0.52600223    -0.19800
C2041       C  0.79868922  0.38268316  0.53463056    -0.21100
C2042       C  0.78548317  0.37956615  0.54610565    -0.19600
C2043       C  0.78848089  0.37057005  0.56133226     0.19600
C2044       C  0.80523791  0.36452763  0.56513392     0.01700
C2045       C  0.80772678  0.35584852  0.58079829    -0.14400
C2046       C  0.79419058  0.35294897  0.59195262    -0.12100
C2047       C  0.77756866  0.35856121  0.58812490     0.01200
C2048       C  0.77484006  0.36752869  0.57276354    -0.24300
H2049       H  0.86093531  0.35948620  0.54641189     0.09200
H2050       H  0.83928525  0.35389741  0.56664297     0.12800
H2051       H  0.82539250  0.38699535  0.51443510     0.11500
H2052       H  0.79585933  0.38974442  0.52302953     0.12700
H2053       H  0.77281344  0.38427539  0.54304995     0.11700
H2054       H  0.82002463  0.35114941  0.58487065     0.08800
H2055       H  0.79683063  0.34615090  0.60374689     0.12100
H2056       H  0.76211333  0.37204362  0.56964382     0.13900
C2057       C  0.86510305  0.26958663  0.43773194    -0.01600
C2058       C  0.85588578  0.27127398  0.45300215    -0.09600
C2059       C  0.85898912  0.28482148  0.46436049    -0.18400
C2060       C  0.87132926  0.29735520  0.46066664     0.04000
C2061       C  0.88133005  0.29494908  0.44568127     0.18200
C2062       C  0.87827648  0.28112918  0.43457052    -0.19800
C2063       C  0.89380774  0.30681251  0.44137665    -0.21100
C2064       C  0.89608816  0.32144697  0.45116372    -0.19600
C2065       C  0.88597098  0.32463919  0.46555379     0.19600
C2066       C  0.87369165  0.31250520  0.47080619     0.01700
C2067       C  0.86394910  0.31646286  0.48556976    -0.14400
C2068       C  0.86579082  0.33210961  0.49418303    -0.12100
C2069       C  0.87731893  0.34433136  0.48839028     0.01200
C2070       C  0.88767855  0.34024055  0.47432763    -0.24300
H2071       H  0.84567529  0.26253384  0.45581991     0.09200
H2072       H  0.85111786  0.28550423  0.47561974     0.12800
H2073       H  0.88553426  0.27999243  0.42283341     0.11500
H2074       H  0.90156096  0.30500348  0.43005469     0.12700
H2075       H  0.90556525  0.33057104  0.44717553     0.11700
H2076       H  0.85448202  0.30790853  0.49047839     0.08800
H2077       H  0.85757183  0.33498944  0.50493385     0.12100
H2078       H  0.89679371  0.34951906  0.46984934     0.13900
C2079       C  0.79299451  0.25077113  0.40241982    -0.01600
C2080       C  0.78346942  0.24213645  0.41474243    -0.09600
C2081       C  0.76569311  0.24383542  0.41520475    -0.18400
C2082       C  0.75684014  0.25399264  0.40302886     0.04000
C2083       C  0.76662927  0.26258666  0.39048671     0.18200
C2084       C  0.78446576  0.26116347  0.39050668    -0.19800
C2085       C  0.75855945  0.27214685  0.37763490    -0.21100
C2086       C  0.74090527  0.27279993  0.37650492    -0.19600
C2087       C  0.73087331  0.26430855  0.38848790     0.19600
C2088       C  0.73864838  0.25536768  0.40234555     0.01700
C2089       C  0.72782976  0.24796937  0.41468495    -0.14400
C2090       C  0.71011199  0.24838457  0.41263917    -0.12100
C2091       C  0.70267156  0.25596602  0.39819273     0.01200
C2092       C  0.71309208  0.26431153  0.38641640    -0.24300
H2093       H  0.78977799  0.23393744  0.42399755     0.09200
H2094       H  0.75918992  0.23663139  0.42489172     0.12800
H2095       H  0.79171112  0.26769665  0.38075160     0.11500
H2096       H  0.76596215  0.27874572  0.36805964     0.12700
H2097       H  0.73505603  0.27985296  0.36606627     0.11700
H2098       H  0.73270339  0.24164371  0.42595124     0.08800
H2099       H  0.70224380  0.24207519  0.42201856     0.12100
H2100       H  0.70734720  0.27054335  0.37539903     0.13900
C2101       C  0.57698259  0.12335669  0.53575133    -0.01600
C2102       C  0.56781407  0.13809484  0.54074482    -0.09600
C2103       C  0.55438777  0.13727626  0.55257060    -0.18400
C2104       C  0.54945524  0.12161991  0.55997215     0.04000
C2105       C  0.55856377  0.10670594  0.55483220     0.18200
C2106       C  0.57225223  0.10775244  0.54322425    -0.19800
C2107       C  0.55400625  0.09075748  0.56134539    -0.21100
C2108       C  0.54067528  0.08926841  0.57291863    -0.19600
C2109       C  0.53165755  0.10371065  0.57856422     0.19600
C2110       C  0.53593965  0.12014587  0.57230938     0.01700
C2111       C  0.52662937  0.13428800  0.57889302    -0.14400
C2112       C  0.51363279  0.13213499  0.59103921    -0.12100
C2113       C  0.50927408  0.11585065  0.59697678     0.01200
C2114       C  0.51849075  0.10173241  0.59060568    -0.24300
H2115       H  0.57115072  0.15053753  0.53600320     0.09200
H2116       H  0.54808881  0.14915747  0.55570994     0.12800
H2117       H  0.57927754  0.09624305  0.53989500     0.11500
H2118       H  0.56078985  0.07929802  0.55741777     0.12700
H2119       H  0.53749913  0.07669302  0.57762691     0.11700
H2120       H  0.52920663  0.14719341  0.57498198     0.08800
H2121       H  0.50682430  0.14331109  0.59561698     0.12100
H2122       H  0.51573862  0.08907366  0.59534737     0.13900
C2123       C  0.64098412  0.12079180  0.52950604    -0.01600
C2124       C  0.64606744  0.10862152  0.54170012    -0.09600
C2125       C  0.66190198  0.10971967  0.55003256    -0.18400
C2126       C  0.67303553  0.12346870  0.54686201     0.04000
C2127       C  0.66778166  0.13577799  0.53447030     0.18200
C2128       C  0.65213090  0.13410848  0.52568026    -0.19800
C2129       C  0.67784269  0.15010177  0.53142713    -0.21100
C2130       C  0.69263819  0.15286712  0.54086135    -0.19600
C2131       C  0.69808415  0.14115848  0.55330499     0.19600
C2132       C  0.68874013  0.12595568  0.55607251     0.01700
C2133       C  0.69535280  0.11421803  0.56825195    -0.14400
C2134       C  0.70984877  0.11803270  0.57810111    -0.12100
C2135       C  0.71821680  0.13365821  0.57624611     0.01200
C2136       C  0.71249741  0.14490847  0.56342290    -0.24300
H2137       H  0.63760131  0.09830541  0.54498021     0.09200
H2138       H  0.66480308  0.10000076  0.55938329     0.12800
H2139       H  0.64814580  0.14377746  0.51654459     0.11500
H2140       H  0.67394523  0.15955352  0.52204600     0.12700
H2141       H  0.69977423  0.16440065  0.53854694     0.11700
H2142       H  0.68938316  0.10212688  0.57065858     0.08800
H2143       H  0.71396815  0.10908015  0.58786093     0.12100
H2144       H  0.71890141  0.15698737  0.56175178     0.13900
C2145       C  0.61244743  0.15388316  0.48936344    -0.01600
C2146       C  0.60825261  0.17108462  0.49268905    -0.09600
C2147       C  0.61163997  0.18398173  0.48066160    -0.18400
C2148       C  0.61935293  0.18012702  0.46473693     0.04000
C2149       C  0.62338201  0.16267281  0.46140948     0.18200
C2150       C  0.61996825  0.14992083  0.47358397    -0.19800
C2151       C  0.63077688  0.15790722  0.44584881    -0.21100
C2152       C  0.63445842  0.17004592  0.43352164    -0.19600
C2153       C  0.63097144  0.18735393  0.43640683     0.19600
C2154       C  0.62330127  0.19277627  0.45197705     0.01700
C2155       C  0.62016984  0.21056171  0.45398391    -0.14400
C2156       C  0.62478342  0.22234873  0.44118865    -0.12100
C2157       C  0.63265288  0.21681981  0.42602091     0.01200
C2158       C  0.63543298  0.19923869  0.42376843    -0.24300
H2159       H  0.60247937  0.17467850  0.50474425     0.09200
H2160       H  0.60810370  0.19685991  0.48413910     0.12800
H2161       H  0.62286423  0.13673392  0.47048057     0.11500
H2162       H  0.63380712  0.14464136  0.44318864     0.12700
H2163       H  0.64026050  0.16584928  0.42165242     0.11700
H2164       H  0.61437187  0.21570352  0.46539823     0.08800
H2165       H  0.62247650  0.23583484  0.44331437     0.12100
H2166       H  0.64138082  0.19470177  0.41208840     0.13900
C2167       C  0.78585096  0.24683296  0.10944203    -0.01600
C2168       C  0.77677661  0.26181283  0.10571331    -0.09600
C2169       C  0.75906815  0.26164258  0.10415083    -0.18400
C2170       C  0.74984841  0.24635287  0.10626287     0.04000
C2171       C  0.75925205  0.23100590  0.10904702     0.18200
C2172       C  0.77706180  0.23139344  0.11067006    -0.19800
C2173       C  0.75079727  0.21544671  0.11069308    -0.21100
C2174       C  0.73311062  0.21483411  0.11004737    -0.19600
C2175       C  0.72343681  0.22980044  0.10800665     0.19600
C2176       C  0.73167112  0.24578996  0.10607988     0.01700
C2177       C  0.72133598  0.26059972  0.10464331    -0.14400
C2178       C  0.70365819  0.25961437  0.10549556    -0.12100
C2179       C  0.69564294  0.24388803  0.10738692     0.01200
C2180       C  0.70554899  0.22895879  0.10832841    -0.24300
H2181       H  0.78332625  0.27386779  0.10467163     0.09200
H2182       H  0.75298475  0.27374192  0.10152651     0.12800
H2183       H  0.78406177  0.21969951  0.11339425     0.11500
H2184       H  0.75791031  0.20368520  0.11269244     0.12700
H2185       H  0.72694476  0.20261276  0.11153400     0.11700
H2186       H  0.72649294  0.27320483  0.10328242     0.08800
H2187       H  0.69617525  0.27128315  0.10468149     0.12100
H2188       H  0.69934834  0.21676644  0.10997912     0.13900
C2189       C  0.85797967  0.22102245  0.08557027    -0.01600
C2190       C  0.85159952  0.22230236  0.06883030    -0.09600
C2191       C  0.85486002  0.20939650  0.05672717    -0.18400
C2192       C  0.86466517  0.19472673  0.06104299     0.04000
C2193       C  0.87195880  0.19410272  0.07773717     0.18200
C2194       C  0.86854986  0.20709240  0.08971169    -0.19800
C2195       C  0.88211333  0.18018086  0.08268231    -0.21100
C2196       C  0.88465910  0.16647545  0.07168676    -0.19600
C2197       C  0.87692730  0.16620683  0.05553626     0.19600
C2198       C  0.86704129  0.18038871  0.04976477     0.01700
C2199       C  0.85946790  0.17917934  0.03329587    -0.14400
C2200       C  0.86083074  0.16413081  0.02353038    -0.12100
C2201       C  0.86988063  0.14993045  0.02978256     0.01200
C2202       C  0.87846780  0.15142818  0.04547813    -0.24300
H2203       H  0.84336245  0.23290669  0.06530773     0.09200
H2204       H  0.84918903  0.21101556  0.04424130     0.12800
H2205       H  0.87362273  0.20598741  0.10259786     0.11500
H2206       H  0.88783849  0.17970913  0.09531865     0.12700
H2207       H  0.89229228  0.15573131  0.07608862     0.11700
H2208       H  0.85191244  0.18942455  0.02791992     0.08800
H2209       H  0.85411154  0.16334657  0.01143237     0.12100
H2210       H  0.88591729  0.14070827  0.05025146     0.13900
C2211       C  0.58276276  0.38429967  0.98540594    -0.01600
C2212       C  0.56697705  0.39259829  0.98820090    -0.09600
C2213       C  0.55384474  0.39222267  0.97607848    -0.18400
C2214       C  0.55559804  0.38304128  0.96063942     0.04000
C2215       C  0.57098373  0.37360137  0.95821565     0.18200
C2216       C  0.58440540  0.37445737  0.97039073    -0.19800
C2217       C  0.57288488  0.36343073  0.94356795    -0.21100
C2218       C  0.56001065  0.36264102  0.93123290    -0.19600
C2219       C  0.54502455  0.37237487  0.93290166     0.19600
C2220       C  0.54263426  0.38280183  0.94758222     0.01700
C2221       C  0.52751294  0.39274799  0.94836789    -0.14400
C2222       C  0.51553549  0.39267697  0.93500811    -0.12100
C2223       C  0.51798918  0.38264776  0.92021787     0.01200
C2224       C  0.53261393  0.37203016  0.91975431    -0.24300
H2225       H  0.56444216  0.39944320  0.99994255     0.09200
H2226       H  0.54232530  0.39907231  0.97931132     0.12800
H2227       H  0.59620158  0.36765396  0.96792636     0.11500
H2228       H  0.58443391  0.35600378  0.94162456     0.12700
H2229       H  0.56197101  0.35462585  0.92008568     0.11700
H2230       H  0.52471227  0.40103963  0.95902934     0.08800
H2231       H  0.50431341  0.40052454  0.93665607     0.12100
H2232       H  0.53467401  0.36388550  0.90871307     0.13900
C2233       C  0.61168892  0.35018289  0.02585648    -0.01600
C2234       C  0.59975825  0.34499018  0.03802753    -0.09600
C2235       C  0.60097842  0.32893617  0.04582934    -0.18400
C2236       C  0.61459782  0.31756900  0.04210097     0.04000
C2237       C  0.62651137  0.32270477  0.02945438     0.18200
C2238       C  0.62473133  0.33870646  0.02118609    -0.19800
C2239       C  0.64059154  0.31220087  0.02578719    -0.21100
C2240       C  0.64362635  0.29724416  0.03505053    -0.19600
C2241       C  0.63241141  0.29207573  0.04792987     0.19600
C2242       C  0.61734471  0.30177316  0.05111851     0.01700
C2243       C  0.60599324  0.29549203  0.06361222    -0.14400
C2244       C  0.61005842  0.28103049  0.07342298    -0.12100
C2245       C  0.62556012  0.27227914  0.07125519     0.01200
C2246       C  0.63646747  0.27763021  0.05807942    -0.24300
H2247       H  0.58957399  0.35361181  0.04181834     0.09200
H2248       H  0.59147437  0.32610959  0.05529204     0.12800
H2249       H  0.63414294  0.34269396  0.01192796     0.11500
H2250       H  0.64970274  0.31591655  0.01612916     0.12700
H2251       H  0.65501115  0.28981173  0.03231465     0.11700
H2252       H  0.59399071  0.30168185  0.06633574     0.08800
H2253       H  0.60135495  0.27721799  0.08340630     0.12100
H2254       H  0.64846674  0.27094763  0.05615236     0.13900
C2255       C  0.63115311  0.14244717  0.79883689    -0.01600
C2256       C  0.64323934  0.12912042  0.79941650    -0.09600
C2257       C  0.65520305  0.12793730  0.81278192    -0.18400
C2258       C  0.65567737  0.14026933  0.82603574     0.04000
C2259       C  0.64293447  0.15333049  0.82579322     0.18200
C2260       C  0.63082044  0.15420269  0.81241620    -0.19800
C2261       C  0.64279205  0.16594210  0.83850131    -0.21100
C2262       C  0.65544802  0.16637998  0.85098951    -0.19600
C2263       C  0.66860911  0.15419851  0.85117055     0.19600
C2264       C  0.66870703  0.14064492  0.83904073     0.01700
C2265       C  0.68224219  0.12855869  0.84010680    -0.14400
C2266       C  0.69568872  0.13062639  0.85183189    -0.12100
C2267       C  0.69607884  0.14471616  0.86290667     0.01200
C2268       C  0.68211829  0.15604288  0.86291300    -0.24300
H2269       H  0.64391400  0.11990459  0.78909134     0.09200
H2270       H  0.66430220  0.11756851  0.81207679    -0.01600
H2271       H  0.62169710  0.16467932  0.81209244     0.11500
H2272       H  0.63307983  0.17586965  0.83849359     0.12700
H2273       H  0.65520044  0.17664313  0.86030354     0.11700
H2274       H  0.68306839  0.11769944  0.83165640     0.08800
H2275       H  0.70627886  0.12166427  0.85156032     0.12100
H2276       H  0.68219076  0.16692087  0.87151020     0.13900
C2277       C  0.77501752  0.14649067  0.92380971    -0.01600
C2278       C  0.77023518  0.13733869  0.93835441    -0.09600
C2279       C  0.78226001  0.13312619  0.95106016    -0.18400
C2280       C  0.79958109  0.13794237  0.94957057     0.04000
C2281       C  0.80424074  0.14751561  0.93493055     0.18200
C2282       C  0.79204892  0.15167896  0.92235168    -0.19800
C2283       C  0.82110057  0.15277816  0.93279740    -0.21100
C2284       C  0.83356853  0.14853361  0.94479531    -0.19600
C2285       C  0.82954153  0.13891052  0.95927649     0.19600
C2286       C  0.81247597  0.13353828  0.96192871     0.01700
C2287       C  0.80913371  0.12389234  0.97677255    -0.14400
C2288       C  0.82212906  0.11966976  0.98834687    -0.12100
C2289       C  0.83904255  0.12471324  0.98561584     0.01200
C2290       C  0.84255051  0.13450301  0.97103668    -0.24300
H2291       H  0.75716850  0.13333248  0.93988926     0.09200
H2292       H  0.77762920  0.12602078  0.96183283     0.12800
H2293       H  0.79594226  0.15890440  0.91123459     0.11500
H2294       H  0.82470930  0.16014850  0.92168309     0.12700
H2295       H  0.84650051  0.15273314  0.94266624     0.11700
H2296       H  0.79659081  0.11940799  0.97982211     0.08800
H2297       H  0.81874285  0.11250934  0.99964350     0.12100
H2298       H  0.85549167  0.13840854  0.96855752     0.13900
C2299       C  0.71924778  0.35880552  0.84401592    -0.01600
C2300       C  0.71082486  0.37424744  0.84055735    -0.09600
C2301       C  0.69876330  0.37531522  0.82740829    -0.18400
C2302       C  0.69464222  0.36079402  0.81748504     0.04000
C2303       C  0.70386564  0.34539438  0.82064465     0.18200
C2304       C  0.71620791  0.34465251  0.83357184    -0.19800
C2305       C  0.70008466  0.33051437  0.81156524    -0.21100
C2306       C  0.68658286  0.33027292  0.80010380    -0.19600
C2307       C  0.67684535  0.34501753  0.79716472     0.19600
C2308       C  0.68113351  0.36068994  0.80522287     0.01700
C2309       C  0.67135143  0.37538132  0.80100952    -0.14400
C2310       C  0.65727008  0.37425689  0.79009843    -0.12100
C2311       C  0.65249184  0.35850606  0.78326705     0.01200
C2312       C  0.66254169  0.34404376  0.78650900    -0.24300
H2313       H  0.71298944  0.38534045  0.84853243     0.09200
H2314       H  0.69234610  0.38744041  0.82586091     0.12800
H2315       H  0.72275398  0.33266883  0.83616706     0.11500
H2316       H  0.70717651  0.31879109  0.81385790     0.12700
H2317       H  0.68352601  0.31838162  0.79374523     0.11700
H2318       H  0.67416720  0.38785469  0.80604020     0.08800
H2319       H  0.64978183  0.38564002  0.78743260     0.12100
H2320       H  0.65909287  0.33190351  0.78084568     0.13900
C2321       C  0.64345399  0.38151557  0.98791252    -0.01600
C2322       C  0.66032018  0.38450274  0.99312925    -0.09600
C2323       C  0.67407285  0.38179487  0.98196516    -0.18400
C2324       C  0.67145607  0.37614514  0.96496414     0.04000
C2325       C  0.65433378  0.37312953  0.95974012     0.18200
C2326       C  0.64066501  0.37563162  0.97119516    -0.19800
C2327       C  0.65087508  0.36782564  0.94299845    -0.21100
C2328       C  0.66395964  0.36559742  0.93125314    -0.19600
C2329       C  0.68092964  0.36839894  0.93594141     0.19600
C2330       C  0.68506478  0.37352176  0.95288327     0.01700
C2331       C  0.70259715  0.37568140  0.95684782    -0.14400
C2332       C  0.71536562  0.37282650  0.94448119    -0.12100
C2333       C  0.71107850  0.36800316  0.92773710     0.01200
C2334       C  0.69377026  0.36591803  0.92368243    -0.24300
H2335       H  0.66295296  0.38884550  0.00602039     0.09200
H2336       H  0.68660919  0.38439691  0.98692815     0.12800
H2337       H  0.62773945  0.37346138  0.96687989     0.11500
H2338       H  0.63790178  0.36551234  0.93889353     0.12700
H2339       H  0.66076233  0.36158723  0.91836378     0.11700
H2340       H  0.70680898  0.37936301  0.96945744     0.08800
H2341       H  0.72860333  0.37433425  0.94804990     0.12100
H2342       H  0.69019512  0.36193876  0.91087714     0.13900
C2343       C  0.74114266  0.30081511  0.90220579    -0.01600
C2344       C  0.72528064  0.29285428  0.90232066    -0.09600
C2345       C  0.72416154  0.27511753  0.90327883    -0.18400
C2346       C  0.73902234  0.26477458  0.90352687     0.04000
C2347       C  0.75508387  0.27306479  0.90387238     0.18200
C2348       C  0.75596838  0.29093339  0.90363098    -0.19800
C2349       C  0.77020342  0.26350099  0.90356238    -0.21100
C2350       C  0.76977807  0.24587159  0.90207098    -0.19600
C2351       C  0.75422431  0.23738411  0.90118639     0.19600
C2352       C  0.73858729  0.24658216  0.90252720     0.01700
C2353       C  0.72326628  0.23715754  0.90222802    -0.14400
C2354       C  0.72352982  0.21947024  0.89975768    -0.12100
C2355       C  0.73897908  0.21083195  0.89733468     0.01200
C2356       C  0.75424736  0.21974773  0.89842195    -0.24300
H2357       H  0.71368100  0.30039526  0.90127174     0.09200
H2358       H  0.71152564  0.26988680  0.90304114     0.12800
H2359       H  0.76825882  0.29712396  0.90331607     0.11500
H2360       H  0.78245706  0.26974140  0.90386268     0.12700
H2361       H  0.78171336  0.23884649  0.90127478     0.11700
H2362       H  0.71091201  0.24309306  0.90364863     0.08800
H2363       H  0.71162013  0.21264051  0.89903691     0.12100
H2364       H  0.76622611  0.21291208  0.89681764     0.13900
C2365       C  0.15622198  0.22826840  0.85986427    -0.01600
C2366       C  0.16748758  0.22753982  0.84604254    -0.09600
C2367       C  0.18206967  0.21725762  0.84672422    -0.18400
C2368       C  0.18570602  0.20709940  0.86126546     0.04000
C2369       C  0.17468640  0.20861311  0.87560958     0.18200
C2370       C  0.16021560  0.21927024  0.87484846    -0.19800
C2371       C  0.17769624  0.19884734  0.89031600    -0.21100
C2372       C  0.19078571  0.18677400  0.89069990    -0.19600
C2373       C  0.20121784  0.18424822  0.87641311     0.19600
C2374       C  0.19924778  0.19480097  0.86172127     0.01700
C2375       C  0.21033133  0.19191725  0.84776482    -0.14400
C2376       C  0.22170241  0.17813892  0.84775925    -0.12100
C2377       C  0.22266439  0.16702003  0.86173157     0.01200
C2378       C  0.21298198  0.17060912  0.87635432    -0.24300
H2379       H  0.16476218  0.23456559  0.83440053     0.09200
H2380       H  0.18988294  0.21711408  0.83542572     0.12800
H2381       H  0.15159153  0.21987558  0.88564744     0.11500
H2382       H  0.16946826  0.20009397  0.90136685     0.12700
H2383       H  0.19236996  0.17894029  0.90202823     0.11700
H2384       H  0.21012015  0.19967033  0.83639551     0.08800
H2385       H  0.22931712  0.17579717  0.83644508     0.12100
H2386       H  0.21378892  0.16213412  0.88729608     0.13900
C2387       C  0.12895655  0.29864038  0.86832869    -0.01600
C2388       C  0.13928411  0.29926739  0.88298961    -0.09600
C2389       C  0.15104886  0.31244274  0.88532111    -0.18400
C2390       C  0.15285781  0.32552898  0.87298101     0.04000
C2391       C  0.14141896  0.32552512  0.85882092     0.18200
C2392       C  0.12973763  0.31215754  0.85659831    -0.19800
C2393       C  0.14219075  0.33846710  0.84652166    -0.21100
C2394       C  0.15458025  0.35099377  0.84749935    -0.19600
C2395       C  0.16673268  0.35077302  0.86064201     0.19600
C2396       C  0.16594928  0.33819974  0.87374424     0.01700
C2397       C  0.17886012  0.33834932  0.88644336    -0.14400
C2398       C  0.19247017  0.34975933  0.88550433    -0.12100
C2399       C  0.19350469  0.36167678  0.87217137     0.01200
C2400       C  0.18020773  0.36250092  0.86017098    -0.24300
H2401       H  0.13894744  0.28901510  0.89226621     0.09200
H2402       H  0.15885691  0.31180579  0.89667806     0.12800
H2403       H  0.12174378  0.31188202  0.84525883     0.11500
H2404       H  0.13338371  0.33867651  0.83581268     0.12700
H2405       H  0.15503951  0.36057205  0.83751871     0.11700
H2406       H  0.17921024  0.32928889  0.89680870     0.08800
H2407       H  0.20261722  0.34876406  0.89488959     0.12100
H2408       H  0.18097134  0.37149173  0.84966703     0.13900
C2409       C  0.12899213  0.19765307  0.64682653    -0.01600
C2410       C  0.14100220  0.19693803  0.63358569    -0.09600
C2411       C  0.15329850  0.18382613  0.63284915    -0.18400
C2412       C  0.15431134  0.17109556  0.64567767     0.04000
C2413       C  0.14158832  0.17140273  0.65862270     0.18200
C2414       C  0.12898077  0.18439928  0.65891356    -0.19800
C2415       C  0.14203389  0.15924406  0.67174150    -0.21100
C2416       C  0.15527118  0.14732451  0.67281280    -0.19600
C2417       C  0.16836897  0.14706084  0.66068657     0.19600
C2418       C  0.16785801  0.15858910  0.64663599     0.01700
C2419       C  0.18128142  0.15743506  0.63458253    -0.14400
C2420       C  0.19497858  0.14595737  0.63687734    -0.12100
C2421       C  0.19587186  0.13526335  0.65124477     0.01200
C2422       C  0.18227893  0.13570055  0.66289871    -0.24300
H2423       H  0.14130970  0.20696322  0.62406114     0.09200
H2424       H  0.16228033  0.18439520  0.62247264     0.12800
H2425       H  0.11987378  0.18484868  0.66931043     0.11500
H2426       H  0.13235023  0.15929484  0.68159331     0.12700
H2427       H  0.15545441  0.13846068  0.68345193     0.11700
H2428       H  0.18173441  0.16551012  0.62343881     0.08800
H2429       H  0.20531701  0.14601495  0.62773777     0.12100
H2430       H  0.18277855  0.12751447  0.67407351     0.13900
C2431       C  0.20882861  0.34082326  0.65770076    -0.01600
C2432       C  0.21034835  0.32758289  0.66963920    -0.09600
C2433       C  0.19887077  0.31411003  0.66962428    -0.18400
C2434       C  0.18537559  0.31350884  0.65761469     0.04000
C2435       C  0.18434713  0.32665569  0.64508966     0.18200
C2436       C  0.19602514  0.34009603  0.64523317    -0.19800
C2437       C  0.17141279  0.32656627  0.63274341    -0.21100
C2438       C  0.15906111  0.31401993  0.63290533    -0.19600
C2439       C  0.15933742  0.30127913  0.64543106     0.19600
C2440       C  0.17262799  0.30063487  0.65782653     0.01700
C2441       C  0.17227412  0.28740215  0.67014194    -0.14400
C2442       C  0.15899966  0.27568397  0.67041910    -0.12100
C2443       C  0.14575853  0.27670491  0.65843179     0.01200
C2444       C  0.14614991  0.28936714  0.64582220    -0.24300
H2445       H  0.22027430  0.32779831  0.67929833     0.09200
H2446       H  0.20076609  0.30453325  0.67934180     0.12800
H2447       H  0.19490379  0.35022043  0.63583185     0.11500
H2448       H  0.17066026  0.33645551  0.62307401     0.12700
H2449       H  0.14902959  0.31447361  0.62334777     0.11700
H2450       H  0.18190567  0.28589029  0.67988396     0.08800
H2451       H  0.15900351  0.26589908  0.68020313     0.12100
H2452       H  0.13597955  0.29015557  0.63642120     0.13900
C2453       C  0.09623304  0.24507847  0.71232198    -0.01600
C2454       C  0.09167515  0.26037657  0.72045135    -0.09600
C2455       C  0.08994018  0.26112494  0.73822850    -0.18400
C2456       C  0.09318418  0.24658932  0.74850158     0.04000
C2457       C  0.09794059  0.23112924  0.74013101     0.18200
C2458       C  0.09899483  0.23041852  0.72220862    -0.19800
C2459       C  0.10228293  0.21664204  0.74971291    -0.21100
C2460       C  0.10281078  0.21739030  0.76747174    -0.19600
C2461       C  0.09842128  0.23247054  0.77607709     0.19600
C2462       C  0.09277320  0.24705254  0.76677891     0.01700
C2463       C  0.08735875  0.26155207  0.77621699    -0.14400
C2464       C  0.08891965  0.26202880  0.79404731    -0.12100
C2465       C  0.09596343  0.24815755  0.80292950     0.01200
C2466       C  0.10014603  0.23322117  0.79393154    -0.24300
H2467       H  0.08954122  0.27187169  0.71302379     0.09200
H2468       H  0.08668300  0.27340321  0.74359853     0.12800
H2469       H  0.10275915  0.21859452  0.71598334     0.11500
H2470       H  0.10591113  0.20482437  0.74341622     0.12700
H2471       H  0.10687661  0.20615092  0.77451948     0.11700
H2472       H  0.08203807  0.27275964  0.77016035     0.08800
H2473       H  0.08526129  0.27355716  0.80082395     0.12100
H2474       H  0.10518684  0.22225781  0.80081651     0.13900
C2475       C  0.96407544  0.12420316  0.92254386    -0.01600
C2476       C  0.96596142  0.11291969  0.93646771    -0.09600
C2477       C  0.95419745  0.11262745  0.94987118    -0.18400
C2478       C  0.93985662  0.12365606  0.95008062     0.04000
C2479       C  0.93818285  0.13559366  0.93650740     0.18200
C2480       C  0.95035208  0.13598816  0.92318115    -0.19800
C2481       C  0.92406677  0.14669900  0.93605915    -0.21100
C2482       C  0.91118602  0.14558016  0.94828592    -0.19600
C2483       C  0.91221017  0.13357567  0.96155563     0.19600
C2484       C  0.92688145  0.12289328  0.96297525     0.01700
C2485       C  0.92781456  0.11173746  0.97713098    -0.14400
C2486       C  0.91438393  0.11048447  0.98873380    -0.12100
C2487       C  0.89921735  0.12001068  0.98669612     0.01200
C2488       C  0.89853241  0.13196202  0.97321851    -0.24300
H2489       H  0.97650758  0.10409125  0.93742767     0.09200
H2490       H  0.95652735  0.10329518  0.95971230     0.12800
H2491       H  0.94877057  0.14509461  0.91285488     0.11500
H2492       H  0.92271383  0.15599118  0.92587455     0.12700
H2493       H  0.90023043  0.15403587  0.94721871     0.11700
H2494       H  0.93879510  0.10380432  0.97966427     0.08800
H2495       H  0.91611474  0.10187242  0.99940291     0.12100
H2496       H  0.88723206  0.13973790  0.97138236     0.13900
C2497       C  0.01287006  0.09545056  0.88871393    -0.01600
C2498       C  0.02848542  0.09941402  0.88110087    -0.09600
C2499       C  0.04171222  0.08726485  0.87984456    -0.18400
C2500       C  0.03978876  0.07044501  0.88610055     0.04000
C2501       C  0.02376195  0.06625048  0.89331890     0.18200
C2502       C  0.01059617  0.07860317  0.89447969    -0.19800
C2503       C  0.02100748  0.04977869  0.89959506    -0.21100
C2504       C  0.03390791  0.03746898  0.89921737    -0.19600
C2505       C  0.04996328  0.04123000  0.89252531     0.19600
C2506       C  0.05313722  0.05768684  0.88566486     0.01700
C2507       C  0.06956553  0.06058369  0.87884745    -0.14400
C2508       C  0.08233535  0.04785533  0.87925679    -0.12100
C2509       C  0.07935953  0.03183304  0.88659245     0.01200
C2510       C  0.06291307  0.02861572  0.89288643    -0.24300
H2511       H  0.03079915  0.11211685  0.87649211     0.09200
H2512       H  0.05339950  0.09147692  0.87410875     0.12800
H2513       H  0.99851162  0.07503062  0.90001007     0.11500
H2514       H  0.00881514  0.04642890  0.90504088     0.12700
H2515       H  0.03134437  0.02492509  0.90438151     0.11700
H2516       H  0.07297538  0.07264020  0.87325952     0.08800
H2517       H  0.09472901  0.05080666  0.87419325     0.12100
H2518       H  0.06011197  0.01618071  0.89817319     0.13900
C2519       C  0.07068115  0.21962739  0.87082718    -0.01600
C2520       C  0.05539588  0.22455122  0.87874499    -0.09600
C2521       C  0.04274455  0.21241885  0.88230321    -0.18400
C2522       C  0.04490717  0.19498765  0.87769494     0.04000
C2523       C  0.06029302  0.19030606  0.86929942     0.18200
C2524       C  0.07292506  0.20244192  0.86622895    -0.19800
C2525       C  0.06304079  0.17350922  0.86380761    -0.21100
C2526       C  0.05083951  0.16112938  0.86645197    -0.19600
C2527       C  0.03568743  0.16509771  0.87499006     0.19600
C2528       C  0.03248278  0.18200012  0.88091544     0.01700
C2529       C  0.01710458  0.18495870  0.88989537    -0.14400
C2530       C  0.00561184  0.17165088  0.89297095    -0.12100
C2531       C  0.00886855  0.15495118  0.88704554     0.01200
C2532       C  0.02387407  0.15205201  0.87780157    -0.24300
H2533       H  0.05324581  0.23777094  0.88225704     0.09200
H2534       H  0.03132010  0.21703637  0.88845708     0.12800
H2535       H  0.08453797  0.19846574  0.85981794     0.11500
H2536       H  0.07471263  0.16991889  0.85730306     0.12700
H2537       H  0.05338373  0.14826158  0.86195148     0.11700
H2538       H  0.01375901  0.19738292  0.89488564     0.08800
H2539       H  0.99404150  0.17456575  0.89991176     0.12100
H2540       H  0.02676127  0.13945593  0.87304768     0.13900
C2541       C  0.02062266  0.40811225  0.62385193    -0.01600
C2542       C  0.03145660  0.41012246  0.63808861    -0.09600
C2543       C  0.04405324  0.42268545  0.63851169    -0.18400
C2544       C  0.04663890  0.43370303  0.62445446     0.04000
C2545       C  0.03588842  0.43158281  0.60994082     0.18200
C2546       C  0.02313761  0.41900921  0.60975654    -0.19800
C2547       C  0.03805633  0.44188987  0.59549824    -0.21100
C2548       C  0.05057818  0.45431049  0.59515449    -0.19600
C2549       C  0.06129204  0.45687797  0.60927032     0.19600
C2550       C  0.05955998  0.44659710  0.62412297     0.01700
C2551       C  0.07096855  0.44960224  0.63783461    -0.14400
C2552       C  0.08336994  0.46233012  0.63685001    -0.12100
C2553       C  0.08486845  0.47281095  0.62233531     0.01200
C2554       C  0.07381092  0.46963112  0.60845509    -0.24300
H2555       H  0.03023739  0.40175428  0.64903015     0.09200
H2556       H  0.05169488  0.42333935  0.64997214     0.12800
H2557       H  0.01568180  0.41755488  0.59823946     0.11500
H2558       H  0.03000045  0.44032337  0.58432611     0.12700
H2559       H  0.05185479  0.46201815  0.58372972     0.11700
H2560       H  0.07068591  0.44225670  0.64947900     0.08800
H2561       H  0.09197357  0.46396868  0.64757886     0.12100
H2562       H  0.07503101  0.47660447  0.59664059     0.13900
C2563       C  0.97018647  0.37658339  0.59578247    -0.01600
C2564       C  0.95443001  0.36919172  0.59956307    -0.09600
C2565       C  0.94133405  0.36835381  0.58725257    -0.18400
C2566       C  0.94364386  0.37459595  0.57040831     0.04000
C2567       C  0.95996890  0.38109500  0.56630439     0.18200
C2568       C  0.97289081  0.38206214  0.57886001    -0.19800
C2569       C  0.96328571  0.38686930  0.54970509    -0.21100
C2570       C  0.95061500  0.38687797  0.53720699    -0.19600
C2571       C  0.93418985  0.38120684  0.54092732     0.19600
C2572       C  0.93045253  0.37477813  0.55750612     0.01700
C2573       C  0.91361730  0.36915616  0.56040759    -0.14400
C2574       C  0.90105559  0.37021043  0.54754409    -0.12100
C2575       C  0.90466168  0.37696351  0.53133483     0.01200
C2576       C  0.92144034  0.38220370  0.52815833    -0.24300
H2577       H  0.95195753  0.36431436  0.61222480     0.09200
H2578       H  0.92949338  0.36282707  0.59128619     0.12800
H2579       H  0.98516262  0.38719434  0.57537689     0.11500
H2580       H  0.97575461  0.39164067  0.54640013     0.12700
H2581       H  0.95363131  0.39164712  0.52457143     0.11700
H2582       H  0.90971119  0.36414065  0.57260973     0.08800
H2583       H  0.88834172  0.36618322  0.55055060     0.12100
H2584       H  0.92464107  0.38716476  0.51564726     0.13900
C2585       C  0.01329737  0.34444316  0.62385430    -0.01600
C2586       C  0.00743280  0.33263060  0.63584205    -0.09600
C2587       C  0.01593687  0.31695961  0.63829917    -0.18400
C2588       C  0.03063970  0.31254333  0.62870515     0.04000
C2589       C  0.03577445  0.32408160  0.61571654     0.18200
C2590       C  0.02719730  0.33981252  0.61349395    -0.19800
C2591       C  0.04980813  0.32012316  0.60538004    -0.21100
C2592       C  0.05934344  0.30529809  0.60811749    -0.19600
C2593       C  0.05530178  0.29414660  0.62145917     0.19600
C2594       C  0.04075993  0.29745108  0.63182699     0.01700
C2595       C  0.03753645  0.28593920  0.64536286    -0.14400
C2596       C  0.04877798  0.27237933  0.64901544    -0.12100
C2597       C  0.06345059  0.26955664  0.63916820     0.01200
C2598       C  0.06625879  0.28019575  0.62502162    -0.24300
H2599       H  0.99671765  0.33586266  0.64395825     0.09200
H2600       H  0.01091040  0.30870248  0.64803223     0.12800
H2601       H  0.03165745  0.34873153  0.60394123     0.11500
H2602       H  0.05366342  0.32874567  0.59530472     0.12700
H2603       H  0.07033147  0.30284073  0.60009209     0.11700
H2604       H  0.02682243  0.28751957  0.65381911     0.08800
H2605       H  0.04632651  0.26448492  0.66008927     0.12100
H2606       H  0.07763911  0.27831175  0.61740041     0.13900
C2607       C  0.82858322  0.35534360  0.73402988    -0.01600
C2608       C  0.82441812  0.37060755  0.72567406    -0.09600
C2609       C  0.81063810  0.37145554  0.71440126    -0.18400
C2610       C  0.80066936  0.35689376  0.71101651     0.04000
C2611       C  0.80413203  0.34184170  0.72062609     0.18200
C2612       C  0.81793778  0.34123627  0.73206571    -0.19800
C2613       C  0.79439080  0.32719477  0.71808098    -0.21100
C2614       C  0.78202376  0.32677701  0.70533750    -0.19600
C2615       C  0.77917867  0.34097597  0.69482750     0.19600
C2616       C  0.78805616  0.35642881  0.69784128     0.01700
C2617       C  0.78459650  0.37042362  0.68689903    -0.14400
C2618       C  0.77370467  0.36875043  0.67288751    -0.12100
C2619       C  0.76580983  0.35320614  0.66943931     0.01200
C2620       C  0.76809968  0.33955296  0.68079517    -0.24300
H2621       H  0.83232047  0.38175957  0.72722887     0.09200
H2622       H  0.80852616  0.38351934  0.70811569     0.12800
H2623       H  0.82094476  0.32945077  0.73873839     0.11500
H2624       H  0.79678231  0.31577750  0.72556797     0.12700
H2625       H  0.77510253  0.31505029  0.70325983     0.11700
H2626       H  0.79051738  0.38266676  0.68844856     0.08800
H2627       H  0.77191776  0.37953427  0.66438236     0.12100
H2628       H  0.76182421  0.32753072  0.67829695     0.13900
C2629       C  0.85656555  0.36329603  0.80481108    -0.01600
C2630       C  0.84632896  0.37794482  0.80684675    -0.09600
C2631       C  0.83472873  0.37930653  0.82049115    -0.18400
C2632       C  0.83280746  0.36585342  0.83244530     0.04000
C2633       C  0.84394357  0.35151138  0.83081849     0.18200
C2634       C  0.85575427  0.35051394  0.81733605    -0.19800
C2635       C  0.84261523  0.33771546  0.84207518    -0.21100
C2636       C  0.82982860  0.33733467  0.85431680    -0.19600
C2637       C  0.81815617  0.35086192  0.85584189     0.19600
C2638       C  0.81977556  0.36560857  0.84537219     0.01700
C2639       C  0.80784095  0.37906176  0.84792068    -0.14400
C2640       C  0.79431031  0.37743619  0.85954345    -0.12100
C2641       C  0.79216448  0.36238994  0.86897552     0.01200
C2642       C  0.80446529  0.34936889  0.86734375    -0.24300
H2643       H  0.84662823  0.38800696  0.79736290     0.09200
H2644       H  0.82690302  0.39068286  0.82092739     0.12800
H2645       H  0.86360600  0.33912985  0.81597294     0.11500
H2646       H  0.85114829  0.32680928  0.84098681     0.12700
H2647       H  0.82881113  0.32615431  0.86239018     0.11700
H2648       H  0.80840372  0.39080864  0.84078482     0.08800
H2649       H  0.78499345  0.38767713  0.86049683     0.12100
H2650       H  0.80301202  0.33768369  0.87459790     0.13900
C2651       C  0.91351866  0.36597785  0.72306154    -0.01600
C2652       C  0.93056153  0.36887749  0.72756083    -0.09600
C2653       C  0.94306945  0.37115343  0.71487348    -0.18400
C2654       C  0.93892157  0.37039502  0.69718188     0.04000
C2655       C  0.92162453  0.36737767  0.69280524     0.18200
C2656       C  0.90925114  0.36545411  0.70559626    -0.19800
C2657       C  0.91670252  0.36597555  0.67563202    -0.21100
C2658       C  0.92858424  0.36735066  0.66260651    -0.19600
C2659       C  0.94568926  0.37050972  0.66633174     0.19600
C2660       C  0.95116082  0.37231850  0.68363569     0.01700
C2661       C  0.96853773  0.37616547  0.68644633    -0.14400
C2662       C  0.97983512  0.37818335  0.67266952    -0.12100
C2663       C  0.97433908  0.37609725  0.65565849     0.01200
C2664       C  0.95726329  0.37214247  0.65273564    -0.24300
H2665       H  0.93429709  0.36909644  0.74091233     0.09200
H2666       H  0.95593884  0.37314512  0.71924354     0.12800
H2667       H  0.89618291  0.36305607  0.70184237     0.11500
H2668       H  0.90354069  0.36361864  0.67223266     0.12700
H2669       H  0.92431021  0.36606208  0.64945780     0.11700
H2670       H  0.97366002  0.37795434  0.69914688     0.08800
H2671       H  0.99298293  0.38131612  0.67533266     0.12100
H2672       H  0.95273835  0.37097287  0.63969897     0.13900
C2673       C  0.79477726  0.13966159  0.63953368    -0.01600
C2674       C  0.79599060  0.12654811  0.65173367    -0.09600
C2675       C  0.80941724  0.12591323  0.66364639    -0.18400
C2676       C  0.82205974  0.13866255  0.66403883     0.04000
C2677       C  0.82109493  0.15164062  0.65131009     0.18200
C2678       C  0.80774347  0.15187068  0.63912260    -0.19800
C2679       C  0.83300317  0.16482191  0.65131060    -0.21100
C2680       C  0.84528792  0.16593664  0.66414124    -0.19600
C2681       C  0.84625611  0.15372496  0.67718449     0.19600
C2682       C  0.83510177  0.13953468  0.67701863     0.01700
C2683       C  0.83721831  0.12722628  0.69017897    -0.14400
C2684       C  0.84910341  0.12954484  0.70347344    -0.12100
C2685       C  0.85915956  0.14422074  0.70420557     0.01200
C2686       C  0.85792663  0.15600999  0.69073792    -0.24300
H2687       H  0.78613058  0.11701454  0.65249301     0.09200
H2688       H  0.80918223  0.11567547  0.67284560     0.12800
H2689       H  0.80688591  0.16222336  0.62995395     0.11500
H2690       H  0.83245250  0.17470564  0.64162703     0.12700
H2691       H  0.85390564  0.17665382  0.66404199     0.11700
H2692       H  0.82961488  0.11586034  0.69071501     0.08800
H2693       H  0.84976076  0.12025721  0.71371916     0.12100
H2694       H  0.86571758  0.16735568  0.69110723     0.13900
C2695       C  0.83762301  0.15341369  0.77919906    -0.01600
C2696       C  0.83592921  0.13911590  0.78972669    -0.09600
C2697       C  0.82273026  0.13821580  0.80153591    -0.18400
C2698       C  0.81068293  0.15165445  0.80309536     0.04000
C2699       C  0.81189316  0.16566726  0.79162028     0.18200
C2700       C  0.82541045  0.16651555  0.77995858    -0.19800
C2701       C  0.79977905  0.17887521  0.79205692    -0.21100
C2702       C  0.78669051  0.17870518  0.80397824    -0.19600
C2703       C  0.78563893  0.16551827  0.81598268     0.19600
C2704       C  0.79762017  0.15178750  0.81572845     0.01700
C2705       C  0.79633224  0.13907949  0.82848289    -0.14400
C2706       C  0.78376894  0.14005067  0.84099819    -0.12100
C2707       C  0.77211238  0.15365947  0.84125740     0.01200
C2708       C  0.77296787  0.16624866  0.82859206    -0.24300
H2709       H  0.84518196  0.12877597  0.78922200     0.09200
H2710       H  0.82237177  0.12685996  0.80927865     0.12800
H2711       H  0.82656078  0.17749716  0.77161894     0.11500
H2712       H  0.80050654  0.18947863  0.78320097     0.12700
H2713       H  0.77756669  0.18917822  0.80407638     0.11700
H2714       H  0.80512333  0.12848176  0.82947351     0.08800
H2715       H  0.78352864  0.13034532  0.85085654     0.12100
H2716       H  0.76406713  0.17692063  0.82884641     0.13900
C2717       C  0.91961759  0.13594965  0.78164295    -0.01600
C2718       C  0.93602190  0.14281628  0.78231329    -0.09600
C2719       C  0.94696038  0.13928008  0.79620405    -0.18400
C2720       C  0.94177361  0.12869611  0.80991745     0.04000
C2721       C  0.92562824  0.12075078  0.80841310     0.18200
C2722       C  0.91481793  0.12444621  0.79446684    -0.19800
C2723       C  0.91996239  0.10974920  0.82124306    -0.21100
C2724       C  0.92953112  0.10715272  0.83602523    -0.19600
C2725       C  0.94496663  0.11560480  0.83847358     0.19600
C2726       C  0.95156968  0.12620292  0.82534461     0.01700
C2727       C  0.96727764  0.13435639  0.82863556    -0.14400
C2728       C  0.97553578  0.13274500  0.84456321    -0.12100
C2729       C  0.96852701  0.12291319  0.85773055     0.01200
C2730       C  0.95347683  0.11396990  0.85429196    -0.24300
H2731       H  0.94005415  0.15172367  0.77258204     0.09200
H2732       H  0.95918358  0.14542118  0.79614719     0.12800
H2733       H  0.90221328  0.11892095  0.79400594     0.11500
H2734       H  0.90778361  0.10345838  0.82005613     0.12700
H2735       H  0.92452243  0.09889670  0.84588417     0.11700
H2736       H  0.97320811  0.14248908  0.81932038     0.08800
H2737       H  0.98710084  0.13983124  0.84678714     0.12100
H2738       H  0.94808082  0.10597265  0.86415617     0.13900
C2739       C  0.89519294  0.20868279  0.75282720    -0.01600
C2740       C  0.89738299  0.21763368  0.73751707    -0.09600
C2741       C  0.89797237  0.23547268  0.73746528    -0.18400
C2742       C  0.89647895  0.24492687  0.75285853     0.04000
C2743       C  0.89571017  0.23566887  0.76846812     0.18200
C2744       C  0.89488171  0.21775083  0.76829920    -0.19800
C2745       C  0.89514510  0.24436293  0.78412408    -0.21100
C2746       C  0.89457730  0.26210707  0.78461514    -0.19600
C2747       C  0.89411032  0.27159166  0.76945157     0.19600
C2748       C  0.89515472  0.26315256  0.75332844     0.01700
C2749       C  0.89388201  0.27326503  0.73838679    -0.14400
C2750       C  0.89092532  0.29083387  0.73943783    -0.12100
C2751       C  0.88970844  0.29899970  0.75531906     0.01200
C2752       C  0.89182887  0.28941736  0.77029537    -0.24300
H2753       H  0.89781085  0.21086426  0.72542513     0.09200
H2754       H  0.89932976  0.24149488  0.72516041     0.12800
H2755       H  0.89347923  0.21085358  0.78022916     0.11500
H2756       H  0.89482698  0.23737754  0.79608088     0.12700
H2757       H  0.89385180  0.26843076  0.79694107     0.11700
H2758       H  0.89441564  0.26789731  0.72569657     0.08800
H2759       H  0.88939485  0.29808563  0.72772339     0.12100
H2760       H  0.89071212  0.29570767  0.78262124     0.13900
C2761       C  0.84927039  0.33866963  0.29051133    -0.01600
C2762       C  0.86470926  0.33499594  0.29875773    -0.09600
C2763       C  0.86590582  0.32158615  0.31049068    -0.18400
C2764       C  0.85155961  0.31149835  0.31434776     0.04000
C2765       C  0.83622897  0.31474250  0.30513544     0.18200
C2766       C  0.83522728  0.32822472  0.29343935    -0.19800
C2767       C  0.82182211  0.30478671  0.30791470    -0.21100
C2768       C  0.82211834  0.29190331  0.32006701    -0.19600
C2769       C  0.83671816  0.28891281  0.32995000     0.19600
C2770       C  0.85169651  0.29860335  0.32723972     0.01700
C2771       C  0.86587193  0.29542593  0.33804133    -0.14400
C2772       C  0.86498221  0.28350117  0.35125968    -0.12100
C2773       C  0.85012713  0.27417232  0.35389691     0.01200
C2774       C  0.83618759  0.27666490  0.34297150    -0.24300
H2775       H  0.87580880  0.34273832  0.29641294     0.09200
H2776       H  0.87815900  0.31954311  0.31642730     0.12800
H2777       H  0.82330068  0.33081481  0.28684966     0.11500
H2778       H  0.81016326  0.30712589  0.30079021     0.12700
H2779       H  0.81068552  0.28454189  0.32208080     0.11700
H2780       H  0.87762608  0.30230663  0.33695939     0.08800
H2781       H  0.87590309  0.28173769  0.35960419     0.12100
H2782       H  0.82459560  0.26956069  0.34506776     0.13900
C2783       C  0.84722206  0.29594380  0.14863738    -0.01600
C2784       C  0.86328628  0.29864999  0.15599905    -0.09600
C2785       C  0.86592493  0.31213888  0.16756919    -0.18400
C2786       C  0.85251004  0.32349867  0.17210178     0.04000
C2787       C  0.83651348  0.32121165  0.16384116     0.18200
C2788       C  0.83400875  0.30752085  0.15243121    -0.19800
C2789       C  0.82290997  0.33234023  0.16733584    -0.21100
C2790       C  0.82466380  0.34548734  0.17915358    -0.19600
C2791       C  0.83994819  0.34765381  0.18812843     0.19600
C2792       C  0.85414785  0.33673908  0.18477960     0.01700
C2793       C  0.86898492  0.33909313  0.19487382    -0.14400
C2794       C  0.86927177  0.35104105  0.20832291    -0.12100
C2795       C  0.85508253  0.36150367  0.21173881     0.01200
C2796       C  0.84072528  0.36011714  0.20110694    -0.24300
H2797       H  0.87370994  0.28990084  0.15332487     0.09200
H2798       H  0.87853247  0.31325369  0.17293429     0.12800
H2799       H  0.82153762  0.30563193  0.14677134     0.11500
H2800       H  0.81072121  0.33074646  0.16101190     0.12700
H2801       H  0.81377232  0.35370565  0.18168822     0.11700
H2802       H  0.88025364  0.33130037  0.19321404     0.08800
H2803       H  0.88043365  0.35168057  0.21647141     0.12100
H2804       H  0.82951372  0.36783146  0.20385520     0.13900
C2805       C  0.63911206  0.33517895  0.22225299    -0.01600
C2806       C  0.64878506  0.32022228  0.22420919    -0.09600
C2807       C  0.64795751  0.30720354  0.21208109    -0.18400
C2808       C  0.63757634  0.30890051  0.19734312     0.04000
C2809       C  0.62722970  0.32383586  0.19580515     0.18200
C2810       C  0.62798877  0.33672242  0.20828481    -0.19800
C2811       C  0.61661982  0.32608585  0.18154344    -0.21100
C2812       C  0.61647234  0.31407681  0.16844496    -0.19600
C2813       C  0.62700607  0.29958772  0.16925202     0.19600
C2814       C  0.63751804  0.29662522  0.18383154     0.01700
C2815       C  0.64795047  0.28179955  0.18395853    -0.14400
C2816       C  0.64841512  0.27080079  0.16993580    -0.12100
C2817       C  0.63845196  0.27410026  0.15542069     0.01200
C2818       C  0.62747894  0.28829369  0.15530336    -0.24300
H2819       H  0.65735064  0.31871805  0.23501435     0.09200
H2820       H  0.65590721  0.29617356  0.21445294     0.12800
H2821       H  0.62048732  0.34831565  0.20669896     0.11500
H2822       H  0.60862666  0.33738403  0.18034787     0.12700
H2823       H  0.60835169  0.31634070  0.15741646     0.11700
H2824       H  0.65618182  0.27849199  0.19452085     0.08800
H2825       H  0.65688495  0.25980628  0.17035034     0.12100
H2826       H  0.61963554  0.29083908  0.14412496     0.13900
C2827       C  0.63633492  0.35808311  0.30048420    -0.01600
C2828       C  0.64775970  0.35975290  0.31420896    -0.09600
C2829       C  0.64711615  0.34874631  0.32832419    -0.18400
C2830       C  0.63512264  0.33538893  0.32907047     0.04000
C2831       C  0.62312157  0.33419883  0.31544301     0.18200
C2832       C  0.62366064  0.34562813  0.30153164    -0.19800
C2833       C  0.61117731  0.32105288  0.31531611    -0.21100
C2834       C  0.61138078  0.30856278  0.32796828    -0.19600
C2835       C  0.62336793  0.30899950  0.34126637     0.19600
C2836       C  0.63508482  0.32269826  0.34233972     0.01700
C2837       C  0.64661496  0.32269035  0.35631510    -0.14400
C2838       C  0.64724558  0.30910531  0.36797253    -0.12100
C2839       C  0.63640647  0.29509117  0.36622178     0.01200
C2840       C  0.62413435  0.29542647  0.35310254    -0.24300
H2841       H  0.65774075  0.36918069  0.31372387     0.09200
H2842       H  0.65662254  0.35057991  0.33811507     0.12800
H2843       H  0.61483957  0.34408437  0.29094814     0.11500
H2844       H  0.60194257  0.32009340  0.30502708     0.12700
H2845       H  0.60230177  0.29826593  0.32713691     0.11700
H2846       H  0.65561369  0.33279447  0.35832850     0.08800
H2847       H  0.65685359  0.30921538  0.37795065     0.12100
H2848       H  0.61567456  0.28467556  0.35156713     0.13900
C2849       C  0.79141215  0.38560938  0.25023875    -0.01600
C2850       C  0.78257239  0.40050089  0.25482228    -0.09600
C2851       C  0.76476579  0.40100459  0.25448617    -0.18400
C2852       C  0.75531927  0.38658656  0.24930320     0.04000
C2853       C  0.76451809  0.37197267  0.24347742     0.18200
C2854       C  0.78234281  0.37153240  0.24424749    -0.19800
C2855       C  0.75589204  0.35773450  0.23721447    -0.21100
C2856       C  0.73823722  0.35748678  0.23699131    -0.19600
C2857       C  0.72880909  0.37125299  0.24351177     0.19600
C2858       C  0.73714404  0.38600760  0.24983835     0.01700
C2859       C  0.72692154  0.39922894  0.25690585    -0.14400
C2860       C  0.70918948  0.39776743  0.25766561    -0.12100
C2861       C  0.70114680  0.38320006  0.25131568     0.01200
C2862       C  0.71104789  0.37011406  0.24409147    -0.24300
H2863       H  0.78942686  0.41156651  0.25934191     0.09200
H2864       H  0.75875679  0.41279063  0.25842652     0.12800
H2865       H  0.78920535  0.36008112  0.24038141     0.11500
H2866       H  0.76285233  0.34666521  0.23254384     0.12700
H2867       H  0.73191439  0.34624067  0.23210803     0.11700
H2868       H  0.73228159  0.41065477  0.26229982     0.08800
H2869       H  0.70176584  0.40801751  0.26334686     0.12100
H2870       H  0.70492407  0.35876990  0.23915485     0.13900
C2871       C  0.61310298  0.41426419  0.03568705    -0.01600
C2872       C  0.62486004  0.41362431  0.04934334    -0.09600
C2873       C  0.62511584  0.42624674  0.06220625    -0.18400
C2874       C  0.61367966  0.44034630  0.06187910     0.04000
C2875       C  0.60228027  0.44142349  0.04775510     0.18200
C2876       C  0.60216139  0.42868653  0.03495442    -0.19800
C2877       C  0.59090787  0.45525641  0.04642038    -0.21100
C2878       C  0.59050302  0.46799786  0.05882432    -0.19600
C2879       C  0.60137762  0.46729161  0.07305001     0.19600
C2880       C  0.61311174  0.45347391  0.07486887     0.01700
C2881       C  0.62362245  0.45348168  0.08962600    -0.14400
C2882       C  0.62240214  0.46651037  0.10202403    -0.12100
C2883       C  0.61067197  0.48013790  0.10035881     0.01200
C2884       C  0.60042861  0.48037778  0.08547093    -0.24300
H2885       H  0.63379796  0.40304216  0.05024157     0.09200
H2886       H  0.63439807  0.42463299  0.07228806     0.12800
H2887       H  0.59349605  0.43051000  0.02440852     0.11500
H2888       H  0.58218019  0.45622768  0.03568114     0.12700
H2889       H  0.58148492  0.47845903  0.05732004     0.11700
H2890       H  0.63282352  0.44344753  0.09200971     0.08800
H2891       H  0.63067762  0.46560640  0.11302080     0.12100
H2892       H  0.59161270  0.49083443  0.08326718     0.13900
C2893       C  0.63357813  0.41739587  0.22147713    -0.01600
C2894       C  0.62501321  0.43219873  0.22690977    -0.09600
C2895       C  0.62117809  0.44537937  0.21525533    -0.18400
C2896       C  0.62574321  0.44404164  0.19772749     0.04000
C2897       C  0.63406558  0.42878127  0.19235198     0.18200
C2898       C  0.63791908  0.41583856  0.20413927    -0.19800
C2899       C  0.63854755  0.42641556  0.17519062    -0.21100
C2900       C  0.63487414  0.43887191  0.16309648    -0.19600
C2901       C  0.62683238  0.45413700  0.16787615     0.19600
C2902       C  0.62228956  0.45708992  0.18526438     0.01700
C2903       C  0.61454968  0.47296193  0.18930379    -0.14400
C2904       C  0.61110796  0.48510594  0.17655186    -0.12100
C2905       C  0.61523229  0.48190967  0.15934867     0.01200
C2906       C  0.62323469  0.46640793  0.15523642    -0.24300
H2907       H  0.62145168  0.43368015  0.24021067     0.09200
H2908       H  0.61459503  0.45642263  0.22029040     0.12800
H2909       H  0.64439954  0.40438202  0.19969408     0.11500
H2910       H  0.64486996  0.41476647  0.17105262     0.12700
H2911       H  0.63840498  0.43655891  0.14988878     0.11700
H2912       H  0.61107296  0.47636312  0.20220839     0.08800
H2913       H  0.60526248  0.49712427  0.18024220     0.12100
H2914       H  0.62633847  0.46361050  0.14206660     0.13900
C2915       C  0.87556304  0.47719548  0.42068607    -0.01600
C2916       C  0.88240428  0.47981014  0.43712716    -0.09600
C2917       C  0.88215763  0.46697075  0.44961710    -0.18400
C2918       C  0.87499306  0.45082212  0.44620677     0.04000
C2919       C  0.86803041  0.44814497  0.42957526     0.18200
C2920       C  0.86830407  0.46124402  0.41710165    -0.19800
C2921       C  0.86093713  0.43232744  0.42544454    -0.21100
C2922       C  0.86062182  0.41913011  0.43739271    -0.19600
C2923       C  0.86741506  0.42129982  0.45386237     0.19600
C2924       C  0.87460475  0.43719608  0.45857778     0.01700
C2925       C  0.88094358  0.43871780  0.47550128    -0.14400
C2926       C  0.88082790  0.42487252  0.48692403    -0.12100
C2927       C  0.87460255  0.40880276  0.48200877     0.01200
C2928       C  0.86714632  0.40755994  0.46557160    -0.24300
H2929       H  0.88793043  0.49196898  0.44048619     0.09200
H2930       H  0.88777002  0.47005089  0.46182472     0.12800
H2931       H  0.86321218  0.45881749  0.40443279     0.11500
H2932       H  0.85562766  0.43010787  0.41282426     0.12700
H2933       H  0.85509941  0.40705720  0.43366159     0.11700
H2934       H  0.88609129  0.45048921  0.48031313     0.08800
H2935       H  0.88566194  0.42689584  0.49973360     0.12100
H2936       H  0.86113454  0.39579645  0.46169651     0.13900
C2937       C  0.87063091  0.47929643  0.36186176    -0.01600
C2938       C  0.85405264  0.47331851  0.35921322    -0.09600
C2939       C  0.85030229  0.46179273  0.34606269    -0.18400
C2940       C  0.86308889  0.45558645  0.33489012     0.04000
C2941       C  0.87996928  0.46136377  0.33764226     0.18200
C2942       C  0.88358333  0.47301284  0.35099506    -0.19800
C2943       C  0.89313689  0.45551423  0.32699029    -0.21100
C2944       C  0.88987877  0.44423781  0.31354905    -0.19600
C2945       C  0.87336836  0.43835370  0.31039616     0.19600
C2946       C  0.85974774  0.44388205  0.32112329     0.01700
C2947       C  0.84337993  0.43737264  0.31763956    -0.14400
C2948       C  0.84069862  0.42577455  0.30432682    -0.12100
C2949       C  0.85407439  0.42024791  0.29375002     0.01200
C2950       C  0.87041704  0.42678245  0.29675174    -0.24300
H2951       H  0.84368129  0.47769070  0.36713357     0.09200
H2952       H  0.83717999  0.45807463  0.34493882     0.12800
H2953       H  0.89660146  0.47701182  0.35296226     0.11500
H2954       H  0.90607818  0.45976868  0.32901041     0.12700
H2955       H  0.90038710  0.44005515  0.30557201     0.11700
H2956       H  0.83235964  0.44082249  0.32509766     0.08800
H2957       H  0.82794826  0.42096562  0.30238529     0.12100
H2958       H  0.88091995  0.42247868  0.28882444     0.13900
C2959       C  0.76398681  0.56860485  0.38067435    -0.01600
C2960       C  0.76559580  0.55261967  0.37268895    -0.09600
C2961       C  0.77959067  0.54181238  0.37615395    -0.18400
C2962       C  0.79275880  0.54684433  0.38748521     0.04000
C2963       C  0.79072810  0.56280819  0.39598515     0.18200
C2964       C  0.77636424  0.57326869  0.39277567    -0.19800
C2965       C  0.80345467  0.56868713  0.40704175    -0.21100
C2966       C  0.81845096  0.55938594  0.40941013    -0.19600
C2967       C  0.82109737  0.54383635  0.40093299     0.19600
C2968       C  0.80817254  0.53707945  0.39016583     0.01700
C2969       C  0.81154301  0.52112212  0.38223382    -0.14400
C2970       C  0.82739741  0.51281101  0.38412363    -0.12100
C2971       C  0.84044801  0.52002834  0.39394505     0.01200
C2972       C  0.83687508  0.53530785  0.40277213    -0.24300
H2973       H  0.75634066  0.54872582  0.36318463     0.09200
H2974       H  0.78011754  0.52990208  0.36924689     0.12800
H2975       H  0.77545241  0.58567643  0.39889096     0.11500
H2976       H  0.80200752  0.58083271  0.41356218     0.12700
H2977       H  0.82820840  0.56457378  0.41770858     0.11700
H2978       H  0.80229270  0.51494281  0.37417393     0.08800
H2979       H  0.82964823  0.50109269  0.37719718     0.12100
H2980       H  0.84663909  0.54089663  0.41079511     0.13900
C2981       C  0.71718437  0.57417956  0.14477398    -0.01600
C2982       C  0.71692003  0.55752490  0.15138077    -0.09600
C2983       C  0.70304656  0.54668601  0.14810571    -0.18400
C2984       C  0.68890453  0.55226271  0.13814485     0.04000
C2985       C  0.68961322  0.56899121  0.13112899     0.18200
C2986       C  0.70356558  0.57958117  0.13440994    -0.19800
C2987       C  0.67618261  0.57535839  0.12114956    -0.21100
C2988       C  0.66189892  0.56557705  0.11802595    -0.19600
C2989       C  0.66053826  0.54920212  0.12493326     0.19600
C2990       C  0.67395126  0.54217204  0.13507397     0.01700
C2991       C  0.67150103  0.52559663  0.14188249    -0.14400
C2992       C  0.65613772  0.51678799  0.13923149    -0.12100
C2993       C  0.64281474  0.52411168  0.12959743     0.01200
C2994       C  0.64549106  0.54009886  0.12207277    -0.24300
H2995       H  0.72717781  0.55305949  0.15957836     0.09200
H2996       H  0.70354508  0.53414250  0.15376638     0.12800
H2997       H  0.70351643  0.59243299  0.12926376     0.11500
H2998       H  0.67665439  0.58810911  0.11581442     0.12700
H2999       H  0.65167404  0.57100895  0.11035834     0.11700
H3000       H  0.68106143  0.51936582  0.14968014     0.08800
H3001       H  0.65445005  0.50452366  0.14533310     0.12100
H3002       H  0.63552929  0.54579855  0.11425161     0.13900
C3003       C  0.74417146  0.59869207  0.21535355    -0.01600
C3004       C  0.75808062  0.59246177  0.22477054    -0.09600
C3005       C  0.75715142  0.59102135  0.24260006    -0.18400
C3006       C  0.74219809  0.59588698  0.25156066     0.04000
C3007       C  0.72795052  0.60158294  0.24177715     0.18200
C3008       C  0.72902145  0.60276965  0.22391540    -0.19800
C3009       C  0.71288056  0.60670388  0.24988526    -0.21100
C3010       C  0.71179538  0.60689371  0.26761775    -0.19600
C3011       C  0.72570091  0.60181109  0.27768676     0.19600
C3012       C  0.74100945  0.59590712  0.26983466     0.01700
C3013       C  0.75458410  0.59076326  0.28065618    -0.14400
C3014       C  0.75331432  0.59230561  0.29841911    -0.12100
C3015       C  0.73843535  0.59870043  0.30601365     0.01200
C3016       C  0.72451959  0.60303017  0.29559729    -0.24300
H3017       H  0.76992840  0.58926848  0.21840804     0.09200
H3018       H  0.76849275  0.58651517  0.24902172     0.12800
H3019       H  0.71814855  0.60750990  0.21668883     0.11500
H3020       H  0.70196951  0.61099457  0.24245874     0.12700
H3021       H  0.70007544  0.61132039  0.27350383     0.11700
H3022       H  0.76645529  0.58578013  0.27579233     0.08800
H3023       H  0.76414695  0.58865071  0.30626803     0.12100
H3024       H  0.71295745  0.60798418  0.30140771     0.13900
C3025       C  0.65002553  0.71567394  0.16287994    -0.01600
C3026       C  0.65582677  0.70996655  0.14693709    -0.09600
C3027       C  0.66944207  0.69837355  0.14583583    -0.18400
C3028       C  0.67765354  0.69212901  0.16076690     0.04000
C3029       C  0.67178187  0.69823376  0.17687001     0.18200
C3030       C  0.65810637  0.70977873  0.17775844    -0.19800
C3031       C  0.67951974  0.69275952  0.19206781    -0.21100
C3032       C  0.69306280  0.68129565  0.19168246    -0.19600
C3033       C  0.69898188  0.67479605  0.17611077     0.19600
C3034       C  0.69136567  0.68000597  0.16039285     0.01700
C3035       C  0.69760914  0.67256217  0.14510022    -0.14400
C3036       C  0.71055638  0.66018624  0.14551760    -0.12100
C3037       C  0.71779013  0.65504215  0.16110238     0.01200
C3038       C  0.71218755  0.66267803  0.17627880    -0.24300
H3039       H  0.64971452  0.71434839  0.13527366     0.09200
H3040       H  0.67323291  0.69455333  0.13314368     0.12800
H3041       H  0.65364178  0.71408854  0.19017215     0.11500
H3042       H  0.67507047  0.69739370  0.20436009     0.12700
H3043       H  0.69878567  0.67728272  0.20368481     0.11700
H3044       H  0.69246218  0.67569596  0.13268084     0.08800
H3045       H  0.71462822  0.65432594  0.13363197     0.12100
H3046       H  0.71765108  0.65866086  0.18840970     0.13900
C3047       C  0.63112501  0.70197327  0.37564707    -0.01600
C3048       C  0.62623406  0.68589029  0.36957078    -0.09600
C3049       C  0.63761717  0.67187556  0.37014051    -0.18400
C3050       C  0.65432652  0.67353939  0.37687816     0.04000
C3051       C  0.65872274  0.68963993  0.38398930     0.18200
C3052       C  0.64722526  0.70351509  0.38330188    -0.19800
C3053       C  0.67485641  0.69207978  0.39118093    -0.21100
C3054       C  0.68701511  0.67909035  0.39095406    -0.19600
C3055       C  0.68345344  0.66331663  0.38340319     0.19600
C3056       C  0.66703330  0.66013977  0.37640612     0.01700
C3057       C  0.66440663  0.64395862  0.36871463    -0.14400
C3058       C  0.67773307  0.63185082  0.36738955    -0.12100
C3059       C  0.69402213  0.63533713  0.37388011     0.01200
C3060       C  0.69653991  0.65097179  0.38226570    -0.24300
H3061       H  0.61389717  0.68433894  0.36356227     0.09200
H3062       H  0.63317923  0.66000966  0.36483219     0.12800
H3063       H  0.65112721  0.71584988  0.38816868     0.11500
H3064       H  0.67823439  0.70427659  0.39673259     0.12700
H3065       H  0.69948502  0.68157063  0.39634795     0.11700
H3066       H  0.65233560  0.64054556  0.36313108     0.08800
H3067       H  0.67542588  0.61996398  0.36072694     0.12100
H3068       H  0.70906543  0.65394241  0.38726843     0.13900
C3069       C  0.59208208  0.74489773  0.21860997    -0.01600
C3070       C  0.58715083  0.75985415  0.22709513    -0.09600
C3071       C  0.58648407  0.76029031  0.24498218    -0.18400
C3072       C  0.59072489  0.74565401  0.25482601     0.04000
C3073       C  0.59426588  0.73018933  0.24596127     0.18200
C3074       C  0.59501121  0.72999273  0.22806689    -0.19800
C3075       C  0.59767349  0.71512260  0.25498906    -0.21100
C3076       C  0.59817764  0.71515214  0.27275053    -0.19600
C3077       C  0.59571884  0.73033478  0.28188054     0.19600
C3078       C  0.59199242  0.74583622  0.27306522     0.01700
C3079       C  0.59044012  0.76094625  0.28284667    -0.14400
C3080       C  0.59265381  0.76066639  0.30056195    -0.12100
C3081       C  0.59619517  0.74535273  0.30915565     0.01200
C3082       C  0.59747923  0.73018598  0.29977465    -0.24300
H3083       H  0.58468217  0.77146280  0.21994740     0.09200
H3084       H  0.58290869  0.77230646  0.25072750     0.12800
H3085       H  0.59852750  0.71829335  0.22146665     0.11500
H3086       H  0.60019344  0.70326478  0.24825424     0.12700
H3087       H  0.60101247  0.70330693  0.27937220     0.11700
H3088       H  0.58801037  0.77325004  0.27714706     0.08800
H3089       H  0.59167728  0.77257161  0.30757553     0.12100
H3090       H  0.60042773  0.71833122  0.30634834     0.13900
C3091       C  0.46625921  0.88270550  0.41111064    -0.01600
C3092       C  0.45962307  0.86672437  0.41555393    -0.09600
C3093       C  0.44637049  0.86530598  0.42759762    -0.18400
C3094       C  0.43924466  0.87990779  0.43575478     0.04000
C3095       C  0.44565884  0.89605637  0.43085772     0.18200
C3096       C  0.45875336  0.89729056  0.41866329    -0.19800
C3097       C  0.43903659  0.91101830  0.43820315    -0.21100
C3098       C  0.42621902  0.91035387  0.45041106    -0.19600
C3099       C  0.41969595  0.89469926  0.45576722     0.19600
C3100       C  0.42608239  0.87921993  0.44856945     0.01700
C3101       C  0.41895427  0.86384408  0.45454743    -0.14400
C3102       C  0.40626389  0.86385581  0.46720098    -0.12100
C3103       C  0.40021380  0.87915505  0.47465880     0.01200
C3104       C  0.40679730  0.89453666  0.46831684    -0.24300
H3105       H  0.46489328  0.85517207  0.41001967     0.09200
H3106       H  0.44205302  0.85259880  0.43040723     0.12800
H3107       H  0.46296290  0.90987157  0.41498788     0.11500
H3108       H  0.44386265  0.92338779  0.43451482     0.12700
H3109       H  0.42145538  0.92221670  0.45581054     0.11700
H3110       H  0.42288622  0.85158166  0.44958821     0.08800
H3111       H  0.40095485  0.85170222  0.47074048     0.12100
H3112       H  0.40184089  0.90654980  0.47317459     0.13900
C3113       C  0.51301893  0.85065183  0.38740777    -0.01600
C3114       C  0.52622489  0.84771769  0.39922419    -0.09600
C3115       C  0.53566039  0.83243941  0.39917194    -0.18400
C3116       C  0.53243027  0.81945857  0.38700941     0.04000
C3117       C  0.51867823  0.82218457  0.37538316     0.18200
C3118       C  0.50904410  0.83754965  0.37582407    -0.19800
C3119       C  0.51504159  0.80982324  0.36295145    -0.21100
C3120       C  0.52512214  0.79514895  0.36137751    -0.19600
C3121       C  0.53906970  0.79230079  0.37227928     0.19600
C3122       C  0.54269475  0.80420727  0.38553232     0.01700
C3123       C  0.55677664  0.80055513  0.39634413    -0.14400
C3124       C  0.56731112  0.78628103  0.39351630    -0.12100
C3125       C  0.56425211  0.77503797  0.37989565     0.01200
C3126       C  0.54978931  0.77793836  0.36959097    -0.24300
H3127       H  0.52951481  0.85750667  0.40842719     0.09200
H3128       H  0.54571905  0.83138202  0.40853159     0.12800
H3129       H  0.49911206  0.83965374  0.36646544     0.11500
H3130       H  0.50455382  0.81171543  0.35407972     0.12700
H3131       H  0.52216441  0.78609879  0.35132224     0.11700
H3132       H  0.56025666  0.80873356  0.40685590     0.08800
H3133       H  0.57840542  0.78448900  0.40161758     0.12100
H3134       H  0.54729193  0.76943496  0.35893546     0.13900
C3135       C  0.27392616  0.64396583  0.15737800    -0.01600
C3136       C  0.27254375  0.63208543  0.17065204    -0.09600
C3137       C  0.28498021  0.63101226  0.18342669    -0.18400
C3138       C  0.29923526  0.64190770  0.18330046     0.04000
C3139       C  0.30095569  0.65331802  0.16927680     0.18200
C3140       C  0.28835006  0.65426227  0.15655788    -0.19800
C3141       C  0.31506213  0.66400563  0.16818828    -0.21100
C3142       C  0.32733773  0.66397639  0.18099737    -0.19600
C3143       C  0.32567800  0.65341988  0.19529913     0.19600
C3144       C  0.31167271  0.64214351  0.19667170     0.01700
C3145       C  0.31052159  0.63198552  0.21158809    -0.14400
C3146       C  0.32265988  0.63317631  0.22462571    -0.12100
C3147       C  0.33631701  0.64440104  0.22317130     0.01200
C3148       C  0.33783389  0.65434587  0.20841013    -0.24300
H3149       H  0.26159606  0.62382035  0.17138902     0.09200
H3150       H  0.28297285  0.62165905  0.19329135     0.12800
H3151       H  0.28961375  0.66331727  0.14616264     0.11500
H3152       H  0.31651139  0.67260273  0.15744513     0.12700
H3153       H  0.33803764  0.67253092  0.17987215     0.11700
H3154       H  0.30026778  0.62321532  0.21370499     0.08800
H3155       H  0.32127944  0.62534874  0.23594618     0.12100
H3156       H  0.34840592  0.66305995  0.20720547     0.13900
C3157       C  0.35133766  0.63697062  0.30889009    -0.01600
C3158       C  0.33935976  0.62386400  0.31003689    -0.09600
C3159       C  0.32709647  0.62383151  0.32304721    -0.18400
C3160       C  0.32619279  0.63717123  0.33528013     0.04000
C3161       C  0.33905335  0.64981566  0.33472664     0.18200
C3162       C  0.35154549  0.64947175  0.32178662    -0.19800
C3163       C  0.33879414  0.66332479  0.34648140    -0.21100
C3164       C  0.32551611  0.66514026  0.35813534    -0.19600
C3165       C  0.31216114  0.65343446  0.35845753     0.19600
C3166       C  0.31255428  0.63897563  0.34740563     0.01700
C3167       C  0.29883527  0.62744941  0.34844230    -0.14400
C3168       C  0.28480997  0.63080552  0.35901251    -0.12100
C3169       C  0.28397874  0.64559391  0.36912731     0.01200
C3170       C  0.29803333  0.65654534  0.36921264    -0.24300
H3171       H  0.33888851  0.61402260  0.30030155     0.09200
H3172       H  0.31804283  0.61359286  0.32273357     0.12800
H3173       H  0.36070645  0.65970485  0.32106375     0.11500
H3174       H  0.34862545  0.67293067  0.34625566     0.12700
H3175       H  0.32543780  0.67609075  0.36662403     0.11700
H3176       H  0.29830853  0.61599257  0.34082542     0.08800
H3177       H  0.27422375  0.62205230  0.35874867     0.12100
H3178       H  0.29758066  0.66804021  0.37694577     0.13900
C3179       C  0.33570076  0.85380339  0.29994562    -0.01600
C3180       C  0.32503848  0.86821289  0.29966215    -0.09600
C3181       C  0.31252203  0.87053083  0.31212261    -0.18400
C3182       C  0.31033396  0.85841619  0.32533051     0.04000
C3183       C  0.32176200  0.84422006  0.32593782     0.18200
C3184       C  0.33421111  0.84203095  0.31328969    -0.19800
C3185       C  0.32050167  0.83207652  0.33895938    -0.21100
C3186       C  0.30782877  0.83346386  0.35122345    -0.19600
C3187       C  0.29601833  0.84693373  0.35065366     0.19600
C3188       C  0.29709165  0.85967636  0.33776855     0.01700
C3189       C  0.28458649  0.87282706  0.33766868    -0.14400
C3190       C  0.27143593  0.87307594  0.34966657    -0.12100
C3191       C  0.27046137  0.86040749  0.36220977     0.01200
C3192       C  0.28290693  0.84751048  0.36275157    -0.24300
H3193       H  0.32609024  0.87754380  0.28951029     0.09200
H3194       H  0.30468383  0.88183181  0.31096009     0.12800
H3195       H  0.34260808  0.83096024  0.31369170     0.11500
H3196       H  0.32926723  0.82131528  0.33955395     0.12700
H3197       H  0.30707390  0.82375163  0.36105232     0.11700
H3198       H  0.28442336  0.88292115  0.32832505     0.08800
H3199       H  0.26193656  0.88318274  0.34906293     0.12100
H3200       H  0.28216916  0.83760849  0.37240157     0.13900
C3201       C  0.34504683  0.85901901  0.21465631    -0.01600
C3202       C  0.33236059  0.87176150  0.21505397    -0.09600
C3203       C  0.32083728  0.87387201  0.20145547    -0.18400
C3204       C  0.32139273  0.86305180  0.18693917     0.04000
C3205       C  0.33458824  0.85046753  0.18634223     0.18200
C3206       C  0.34632938  0.84871289  0.19999419    -0.19800
C3207       C  0.33556871  0.83921761  0.17243097    -0.21100
C3208       C  0.32334533  0.83966505  0.15947098    -0.19600
C3209       C  0.30986539  0.85150025  0.15992388     0.19600
C3210       C  0.30895025  0.86371836  0.17338552     0.01700
C3211       C  0.29526435  0.87562771  0.17294972    -0.14400
C3212       C  0.28241626  0.87459167  0.16048019    -0.12100
C3213       C  0.28273952  0.86178106  0.14791275     0.01200
C3214       C  0.29688799  0.85066788  0.14739090    -0.24300
H3215       H  0.33098824  0.87986949  0.22621485     0.09200
H3216       H  0.31127908  0.88372450  0.20294354     0.12800
H3217       H  0.35593775  0.83868597  0.19957689     0.11500
H3218       H  0.34560729  0.82964343  0.17180846     0.12700
H3219       H  0.32424294  0.83040862  0.14918761     0.11700
H3220       H  0.29386655  0.88558994  0.18237778     0.08800
H3221       H  0.27170744  0.88338184  0.16122541     0.12100
H3222       H  0.29734136  0.84068824  0.13777360     0.13900
C3223       C  0.41371746  0.85878009  0.28561475    -0.01600
C3224       C  0.42381923  0.84572268  0.29273254    -0.09600
C3225       C  0.43597768  0.84915730  0.30532789    -0.18400
C3226       C  0.43843027  0.86591834  0.31149490     0.04000
C3227       C  0.42895586  0.87933447  0.30353744     0.18200
C3228       C  0.41672284  0.87568647  0.29071542    -0.19800
C3229       C  0.43146043  0.89623615  0.30878213    -0.21100
C3230       C  0.44306133  0.90008336  0.32177011    -0.19600
C3231       C  0.45220347  0.88711187  0.33020700     0.19600
C3232       C  0.44981350  0.86981132  0.32534881     0.01700
C3233       C  0.45853012  0.85713110  0.33493331    -0.14400
C3234       C  0.46930690  0.86144735  0.34852935    -0.12100
C3235       C  0.47221935  0.87851015  0.35296763     0.01200
C3236       C  0.46351832  0.89130703  0.34366732    -0.24300
H3237       H  0.42194937  0.83257747  0.28889729     0.09200
H3238       H  0.44312852  0.83836143  0.31012513     0.12800
H3239       H  0.40899783  0.88590350  0.28532751     0.11500
H3240       H  0.42436881  0.90657757  0.30280943     0.12700
H3241       H  0.44468042  0.91331090  0.32544303     0.11700
H3242       H  0.45701507  0.84369446  0.33248080     0.08800
H3243       H  0.47546718  0.85123828  0.35549016     0.12100
H3244       H  0.46517843  0.90456596  0.34720395     0.13900
C3245       C  0.36857874  0.79207498  0.25410427    -0.01600
C3246       C  0.35325671  0.78319038  0.25505993    -0.09600
C3247       C  0.35318959  0.76542108  0.25615316    -0.18400
C3248       C  0.36858860  0.75588890  0.25661288     0.04000
C3249       C  0.38412411  0.76495501  0.25523187     0.18200
C3250       C  0.38397763  0.78286273  0.25385951    -0.19800
C3251       C  0.39971388  0.75612231  0.25554829    -0.21100
C3252       C  0.40023734  0.73844555  0.25723984    -0.19600
C3253       C  0.38518782  0.72914527  0.25873599     0.19600
C3254       C  0.36913559  0.73774046  0.25850522     0.01700
C3255       C  0.35433163  0.72778565  0.26028095    -0.14400
C3256       C  0.35540552  0.71008726  0.26184305    -0.12100
C3257       C  0.37119554  0.70163805  0.26176644     0.01200
C3258       C  0.38607776  0.71126209  0.26037067    -0.24300
H3259       H  0.34120857  0.79004894  0.25520615     0.09200
H3260       H  0.34085566  0.75958469  0.25684490     0.12800
H3261       H  0.39590928  0.78968074  0.25324187     0.11500
H3262       H  0.41160536  0.76294460  0.25453068     0.12700
H3263       H  0.41251648  0.73200346  0.25742207     0.11700
H3264       H  0.34169227  0.73324170  0.26045589     0.08800
H3265       H  0.34371983  0.70294860  0.26296145     0.12100
H3266       H  0.39836145  0.70481413  0.26029914     0.13900
C3267       C  0.39374791  0.61561865  0.03447436    -0.01600
C3268       C  0.39339376  0.62872074  0.04682391    -0.09600
C3269       C  0.40624857  0.63030028  0.05924560    -0.18400
C3270       C  0.42012647  0.61866432  0.05998007     0.04000
C3271       C  0.42057091  0.60541661  0.04753796     0.18200
C3272       C  0.40761283  0.60403025  0.03505523    -0.19800
C3273       C  0.43390914  0.59341393  0.04768017    -0.21100
C3274       C  0.44671859  0.59414352  0.05998517    -0.19600
C3275       C  0.44664129  0.60692266  0.07253384     0.19600
C3276       C  0.43344194  0.61947030  0.07267573     0.01700
C3277       C  0.43412369  0.63207910  0.08563454    -0.14400
C3278       C  0.44704824  0.63190538  0.09810092    -0.12100
C3279       C  0.45992047  0.61926589  0.09827177     0.01200
C3280       C  0.45960545  0.60694530  0.08509007    -0.24300
H3281       H  0.38294391  0.63785360  0.04690111     0.09200
H3282       H  0.40489853  0.64069326  0.06820054     0.12800
H3283       H  0.40851922  0.59361360  0.02610271     0.11500
H3284       H  0.43438598  0.58326394  0.03825358     0.12700
H3285       H  0.45673038  0.58451987  0.05974176     0.11700
H3286       H  0.42471565  0.64214402  0.08659382     0.08800
H3287       H  0.44679592  0.64160495  0.10799167     0.12100
H3288       H  0.46906943  0.59692286  0.08452397     0.13900
C3289       C  0.51243367  0.59266144  0.12862795    -0.01600
C3290       C  0.51812653  0.58673061  0.14462522    -0.09600
C3291       C  0.53143100  0.57460692  0.14590627    -0.18400
C3292       C  0.53957905  0.56794261  0.13112520     0.04000
C3293       C  0.53406096  0.57435670  0.11500050     0.18200
C3294       C  0.52082294  0.58656714  0.11392882    -0.19800
C3295       C  0.54167222  0.56845465  0.09990924    -0.21100
C3296       C  0.55455066  0.55616640  0.10039675    -0.19600
C3297       C  0.56018456  0.54935224  0.11598560     0.19600
C3298       C  0.55287541  0.55513323  0.13161260     0.01700
C3299       C  0.55930546  0.54785733  0.14692420    -0.14400
C3300       C  0.57219173  0.53526434  0.14666376    -0.12100
C3301       C  0.57907490  0.52916745  0.13114821     0.01200
C3302       C  0.57319796  0.53682756  0.11592726    -0.24300
H3303       H  0.51198777  0.59111176  0.15623171     0.09200
H3304       H  0.53493441  0.57051543  0.15861940     0.12800
H3305       H  0.51708995  0.59136173  0.10145652     0.11500
H3306       H  0.53755475  0.57331578  0.08757380     0.12700
H3307       H  0.56008154  0.55187067  0.08843203     0.11700
H3308       H  0.55473217  0.55179192  0.15932717     0.08800
H3309       H  0.57702362  0.53069805  0.15880594     0.12100
H3310       H  0.57892652  0.53315078  0.10385887     0.13900
C3311       C  0.50538985  0.64994212  0.13335919    -0.01600
C3312       C  0.50063800  0.66715394  0.13127396    -0.09600
C3313       C  0.51234585  0.68032627  0.13424527    -0.18400
C3314       C  0.52938030  0.67667411  0.13916579     0.04000
C3315       C  0.53406089  0.65916338  0.14112563     0.18200
C3316       C  0.52213032  0.64615101  0.13838249    -0.19800
C3317       C  0.55071875  0.65462338  0.14570221    -0.21100
C3318       C  0.56288986  0.66703749  0.14850165    -0.19600
C3319       C  0.55875300  0.68437557  0.14689358     0.19600
C3320       C  0.54199215  0.68958353  0.14219657     0.01700
C3321       C  0.53874443  0.70741621  0.14090511    -0.14400
C3322       C  0.55154222  0.71944488  0.14448657    -0.12100
C3323       C  0.56797367  0.71409839  0.14931173     0.01200
C3324       C  0.57138805  0.69649191  0.15023412    -0.24300
H3325       H  0.48775452  0.67045652  0.12744453     0.09200
H3326       H  0.50778050  0.69323346  0.13248689     0.12800
H3327       H  0.52607485  0.63291437  0.13971652     0.11500
H3328       H  0.55438636  0.64132489  0.14713605     0.12700
H3329       H  0.57566346  0.66302139  0.15207587     0.11700
H3330       H  0.52637349  0.71240125  0.13738523     0.08800
H3331       H  0.54849499  0.73293409  0.14373835     0.12100
H3332       H  0.58399316  0.69207676  0.15397417     0.13900
C3333       C  0.46657026  0.61520027  0.16214130    -0.01600
C3334       C  0.47242418  0.62577672  0.17533703    -0.09600
C3335       C  0.46335431  0.62732564  0.19075145    -0.18400
C3336       C  0.44796865  0.61838540  0.19339010     0.04000
C3337       C  0.44280317  0.60678271  0.18040751     0.18200
C3338       C  0.45217667  0.60515518  0.16517815    -0.19800
C3339       C  0.42782511  0.59744577  0.18228240    -0.21100
C3340       C  0.41732843  0.60001423  0.19635598    -0.19600
C3341       C  0.42155679  0.61192771  0.20899791     0.19600
C3342       C  0.43712919  0.62100422  0.20798287     0.01700
C3343       C  0.44070642  0.63280611  0.22124120    -0.14400
C3344       C  0.42888593  0.63614756  0.23431053    -0.12100
C3345       C  0.41319841  0.62776186  0.23474290     0.01200
C3346       C  0.40990092  0.61530175  0.22226850    -0.24300
H3347       H  0.48352757  0.63361833  0.17340252     0.09200
H3348       H  0.46834534  0.63608540  0.20010916     0.12800
H3349       H  0.44776257  0.59655214  0.15526698     0.11500
H3350       H  0.42390165  0.58847017  0.17250038     0.12700
H3351       H  0.40555912  0.59294834  0.19711475     0.11700
H3352       H  0.45230365  0.64004167  0.22154719     0.08800
H3353       H  0.43175648  0.64587796  0.24371466     0.12100
H3354       H  0.39780401  0.60874700  0.22238512     0.13900
C3355       C  0.12016858  0.63791982  0.20675833    -0.01600
C3356       C  0.11787445  0.64814082  0.19215995    -0.09600
C3357       C  0.12982708  0.64785351  0.17874878    -0.18400
C3358       C  0.14461346  0.63732751  0.17954221     0.04000
C3359       C  0.14623034  0.62620994  0.19386009     0.18200
C3360       C  0.13414448  0.62660826  0.20715948    -0.19800
C3361       C  0.16029398  0.61517870  0.19522617    -0.21100
C3362       C  0.17318763  0.61538300  0.18308271    -0.19600
C3363       C  0.17252348  0.62676799  0.16929891     0.19600
C3364       C  0.15814143  0.63775912  0.16710140     0.01700
C3365       C  0.15839467  0.64912497  0.15298720    -0.14400
C3366       C  0.17263196  0.65004918  0.14210375    -0.12100
C3367       C  0.18701856  0.63956756  0.14472823     0.01200
C3368       C  0.18656396  0.62765145  0.15813552    -0.24300
H3369       H  0.10721587  0.65699558  0.19144602     0.09200
H3370       H  0.12742788  0.65632921  0.16812848     0.12800
H3371       H  0.13608727  0.61857175  0.21830113     0.11500
H3372       H  0.16153114  0.60655484  0.20600605     0.12700
H3373       H  0.18404434  0.60689459  0.18478517     0.11700
H3374       H  0.14799036  0.65784164  0.15040029     0.08800
H3375       H  0.17260567  0.65944062  0.13194583     0.12100
H3376       H  0.19756998  0.61948535  0.16040967     0.13900
C3377       C  0.13728588  0.64792661  0.28608379    -0.01600
C3378       C  0.13765377  0.63584959  0.29925903    -0.09600
C3379       C  0.15100241  0.63551322  0.31109782    -0.18400
C3380       C  0.16443758  0.64736491  0.31009380     0.04000
C3381       C  0.16418536  0.65924506  0.29633509     0.18200
C3382       C  0.15071457  0.65940099  0.28453949    -0.19800
C3383       C  0.17720695  0.67114449  0.29457546    -0.21100
C3384       C  0.19029637  0.67187984  0.30650050    -0.19600
C3385       C  0.19066341  0.66073674  0.32046081     0.19600
C3386       C  0.17790679  0.64813165  0.32238333     0.01700
C3387       C  0.17901793  0.63716509  0.33674090    -0.14400
C3388       C  0.19193767  0.63904819  0.34890314    -0.12100
C3389       C  0.20409258  0.65185137  0.34713206     0.01200
C3390       C  0.20354129  0.66244896  0.33275561    -0.24300
H3391       H  0.12743343  0.62676866  0.30059128     0.09200
H3392       H  0.15031720  0.62596344  0.32097150     0.12800
H3393       H  0.15056370  0.66869087  0.27425733     0.11500
H3394       H  0.17712924  0.68013133  0.28403807     0.12700
H3395       H  0.20006093  0.68142866  0.30494183     0.11700
H3396       H  0.16994877  0.62722666  0.33911661     0.08800
H3397       H  0.19211205  0.63076850  0.35999849     0.12100
H3398       H  0.21296430  0.67236840  0.33131776     0.13900
C3399       C  0.13711359  0.84963589  0.22794190    -0.01600
C3400       C  0.13447046  0.85902255  0.21296346    -0.09600
C3401       C  0.14727163  0.86038879  0.20084249    -0.18400
C3402       C  0.16325556  0.85229679  0.20330635     0.04000
C3403       C  0.16596383  0.84291829  0.21866823     0.18200
C3404       C  0.15288899  0.84162558  0.23079407    -0.19800
C3405       C  0.18166947  0.83488527  0.22179015    -0.21100
C3406       C  0.19471507  0.83577826  0.20983791    -0.19600
C3407       C  0.19229787  0.84461077  0.19443454     0.19600
C3408       C  0.17655939  0.85308856  0.19100413     0.01700
C3409       C  0.17469876  0.86177396  0.17524922    -0.14400
C3410       C  0.18774361  0.86175061  0.16328221    -0.12100
C3411       C  0.20301468  0.85305036  0.16650505     0.01200
C3412       C  0.20536716  0.84469622  0.18220775    -0.24300
H3413       H  0.12238652  0.86538686  0.21055000     0.09200
H3414       H  0.14416982  0.86790004  0.18972157     0.12800
H3415       H  0.15498622  0.83436250  0.24243127     0.11500
H3416       H  0.18384973  0.82779787  0.23351381     0.12700
H3417       H  0.20669822  0.82933590  0.21256127     0.11700
H3418       H  0.16323530  0.86846594  0.17155750     0.08800
H3419       H  0.18562048  0.86815150  0.15116693     0.12100
H3420       H  0.21721303  0.83790873  0.18474086     0.13900
C3421       C  0.18366726  0.87120277  0.37418859    -0.01600
C3422       C  0.18294107  0.88374735  0.36137657    -0.09600
C3423       C  0.16996654  0.88380576  0.34894281    -0.18400
C3424       C  0.15725405  0.87110040  0.34873844     0.04000
C3425       C  0.15742675  0.85906634  0.36237377     0.18200
C3426       C  0.17043106  0.85929619  0.37492211    -0.19800
C3427       C  0.14505486  0.84633826  0.36298841    -0.21100
C3428       C  0.13291858  0.84483250  0.35004871    -0.19600
C3429       C  0.13280317  0.85595909  0.33603502     0.19600
C3430       C  0.14478777  0.86944747  0.33526213     0.01700
C3431       C  0.14413833  0.88018590  0.32069149    -0.14400
C3432       C  0.13263677  0.87717499  0.30722385    -0.12100
C3433       C  0.12118735  0.86352731  0.30779164     0.01200
C3434       C  0.12114400  0.85323098  0.32249876    -0.24300
H3435       H  0.19292285  0.89313897  0.36046069     0.09200
H3436       H  0.17053201  0.89363005  0.33932024     0.12800
H3437       H  0.17079763  0.84948690  0.38469702     0.11500
H3438       H  0.14500235  0.83718812  0.37337899     0.12700
H3439       H  0.12379532  0.83457700  0.35080356     0.11700
H3440       H  0.15270567  0.89072758  0.31911438     0.08800
H3441       H  0.13307861  0.88530725  0.29603706     0.12100
H3442       H  0.11250719  0.84254198  0.32310007     0.13900
C3443       C  0.09189179  0.79377688  0.26106457    -0.01600
C3444       C  0.08399619  0.78471944  0.27421032    -0.09600
C3445       C  0.08285208  0.76690770  0.27347930    -0.18400
C3446       C  0.08950020  0.75759382  0.25940619     0.04000
C3447       C  0.09699333  0.76696817  0.24586478     0.18200
C3448       C  0.09828685  0.78478707  0.24690947    -0.19800
C3449       C  0.10317858  0.75853259  0.23132363    -0.21100
C3450       C  0.10209750  0.74090626  0.22989095    -0.19600
C3451       C  0.09523791  0.73122338  0.24316797     0.19600
C3452       C  0.08903234  0.73937318  0.25823860     0.01700
C3453       C  0.08307926  0.72887577  0.27162473    -0.14400
C3454       C  0.08355036  0.71109494  0.27017266    -0.12100
C3455       C  0.08949319  0.70322670  0.25522450     0.01200
C3456       C  0.09501744  0.71335915  0.24164738    -0.24300
H3457       H  0.07884334  0.79141014  0.28520282     0.09200
H3458       H  0.07657591  0.76081131  0.28404389     0.12800
H3459       H  0.10426043  0.79170693  0.23656384     0.11500
H3460       H  0.10883736  0.76563507  0.22093307     0.12700
H3461       H  0.10696028  0.73477206  0.21843800     0.11700
H3462       H  0.07846708  0.73399721  0.28356517     0.08800
H3463       H  0.07931972  0.70343411  0.28084990     0.12100
H3464       H  0.09991387  0.70728182  0.23016653     0.13900
C3465       C  0.01599917  0.87904288  0.09262480    -0.01600
C3466       C  0.03058261  0.86849605  0.09402215    -0.09600
C3467       C  0.04309217  0.86796363  0.08125083    -0.18400
C3468       C  0.04127484  0.87746439  0.06599004     0.04000
C3469       C  0.02586639  0.88694365  0.06378104     0.18200
C3470       C  0.01357354  0.88781055  0.07701418    -0.19800
C3471       C  0.02283564  0.89556023  0.04834485    -0.21100
C3472       C  0.03491800  0.89537489  0.03530846    -0.19600
C3473       C  0.05060740  0.88693636  0.03744636     0.19600
C3474       C  0.05406209  0.87783092  0.05280014     0.01700
C3475       C  0.07031806  0.86990996  0.05438452    -0.14400
C3476       C  0.08266819  0.87130612  0.04145822    -0.12100
C3477       C  0.07932317  0.88051616  0.02639932     0.01200
C3478       C  0.06299463  0.88793674  0.02443328    -0.24300
H3479       H  0.03256107  0.86078437  0.10535862     0.09200
H3480       H  0.05399973  0.85982513  0.08359919     0.12800
H3481       H  0.00204342  0.89514880  0.07485603     0.11500
H3482       H  0.01103818  0.90258796  0.04635222     0.12700
H3483       H  0.03212341  0.90227319  0.02359896     0.11700
H3484       H  0.07404349  0.86298907  0.06573233     0.08800
H3485       H  0.09510482  0.86560177  0.04358596     0.12100
H3486       H  0.05989701  0.89479447  0.01278559     0.13900
C3487       C  0.05704426  0.86565364  0.23381895    -0.01600
C3488       C  0.04260469  0.85570281  0.23064617    -0.09600
C3489       C  0.03199270  0.85889055  0.21645722    -0.18400
C3490       C  0.03561304  0.87207136  0.20465703     0.04000
C3491       C  0.04981884  0.88262421  0.20835002     0.18200
C3492       C  0.06020303  0.87945423  0.22283606    -0.19800
C3493       C  0.05401242  0.89589638  0.19718744    -0.21100
C3494       C  0.04481505  0.89858820  0.18214737    -0.19600
C3495       C  0.03111568  0.88811219  0.17780276     0.19600
C3496       C  0.02606844  0.87487354  0.18910078     0.01700
C3497       C  0.01201635  0.86479177  0.18402477    -0.14400
C3498       C  0.00372527  0.86745363  0.16825386    -0.12100
C3499       C  0.00917599  0.88011194  0.15692384     0.01200
C3500       C  0.02274884  0.89054462  0.16196482    -0.24300
H3501       H  0.03982385  0.84495333  0.23884053     0.09200
H3502       H  0.02133531  0.85048756  0.21476174     0.12800
H3503       H  0.07137546  0.88719734  0.22499417     0.11500
H3504       H  0.06474625  0.90405910  0.19992668     0.12700
H3505       H  0.04866355  0.90877967  0.17367369     0.11700
H3506       H  0.00735585  0.85453076  0.19183700     0.08800
H3507       H  0.99344351  0.85907550  0.16458542     0.12100
H3508       H  0.02705011  0.90041359  0.15332268     0.13900
C3509       C  0.01510225  0.62617014  0.41865422    -0.01600
C3510       C  0.02950677  0.63652594  0.41663461    -0.09600
C3511       C  0.04230044  0.63730129  0.42920731    -0.18400
C3512       C  0.04104358  0.62796175  0.44462773     0.04000
C3513       C  0.02597700  0.61839350  0.44717204     0.18200
C3514       C  0.01329356  0.61764872  0.43440410    -0.19800
C3515       C  0.02362620  0.60945164  0.46246568    -0.21100
C3516       C  0.03602758  0.60951695  0.47518453    -0.19600
C3517       C  0.05126339  0.61833013  0.47290469     0.19600
C3518       C  0.05405846  0.62772074  0.45764259     0.01700
C3519       C  0.06984388  0.63616294  0.45607614    -0.14400
C3520       C  0.08238508  0.63493930  0.46892299    -0.12100
C3521       C  0.07974012  0.62532442  0.48382630     0.01200
C3522       C  0.06381019  0.61749047  0.48578576    -0.24300
H3523       H  0.03107982  0.64382725  0.40499563     0.09200
H3524       H  0.05304528  0.64530729  0.42650168     0.12800
H3525       H  0.00196557  0.61049620  0.43713335     0.11500
H3526       H  0.01212668  0.60222448  0.46457919     0.12700
H3527       H  0.03379475  0.60234318  0.48680071     0.11700
H3528       H  0.07299347  0.64351334  0.44489095     0.08800
H3529       H  0.09432907  0.64128337  0.46687139     0.12100
H3530       H  0.06103030  0.61055300  0.49739713     0.13900
C3531       C  0.96302625  0.59700844  0.39193038    -0.01600
C3532       C  0.95565980  0.59174053  0.40739653    -0.09600
C3533       C  0.94360123  0.57874514  0.40784863    -0.18400
C3534       C  0.93824988  0.57043836  0.39272166     0.04000
C3535       C  0.94495117  0.57639707  0.37693924     0.18200
C3536       C  0.95720178  0.58953238  0.37666528    -0.19800
C3537       C  0.93957212  0.56899014  0.36154215    -0.21100
C3538       C  0.92799988  0.55559540  0.36148331    -0.19600
C3539       C  0.92160114  0.54903222  0.37683208     0.19600
C3540       C  0.92657715  0.55641961  0.39267772     0.01700
C3541       C  0.91965274  0.54941679  0.40776778    -0.14400
C3542       C  0.90826850  0.53580243  0.40713836    -0.12100
C3543       C  0.90354260  0.52814441  0.39155477     0.01200
C3544       C  0.91013622  0.53521416  0.37638197    -0.24300
H3545       H  0.95929786  0.59765028  0.41937865     0.09200
H3546       H  0.93877707  0.57544461  0.42028889     0.12800
H3547       H  0.96262100  0.59347339  0.36458358     0.11500
H3548       H  0.94443580  0.57352364  0.34942560     0.12700
H3549       H  0.92418459  0.55017949  0.34930905     0.11700
H3550       H  0.92264238  0.55428140  0.42031104     0.08800
H3551       H  0.90284397  0.53144736  0.41905854     0.12100
H3552       H  0.90603236  0.53039321  0.36408564     0.13900
C3553       C  0.00628429  0.61897491  0.35512352    -0.01600
C3554       C  0.01897891  0.60690813  0.35112597    -0.09600
C3555       C  0.02774261  0.60754547  0.33554819    -0.18400
C3556       C  0.02436535  0.62062909  0.32348486     0.04000
C3557       C  0.01098330  0.63241768  0.32730834     0.18200
C3558       C  0.00196205  0.63132990  0.34286594    -0.19800
C3559       C  0.00725082  0.64577370  0.31597256    -0.21100
C3560       C  0.01698913  0.64819194  0.30132775    -0.19600
C3561       C  0.03065205  0.63722772  0.29748386     0.19600
C3562       C  0.03425858  0.62298061  0.30822070     0.01700
C3563       C  0.04803612  0.61216609  0.30351613    -0.14400
C3564       C  0.05840595  0.61598299  0.28946640    -0.12100
C3565       C  0.05543520  0.63062188  0.27952201     0.01200
C3566       C  0.04116973  0.64088537  0.28335535    -0.24300
H3567       H  0.02253086  0.59721767  0.36038971     0.09200
H3568       H  0.03753929  0.59801344  0.33361190     0.12800
H3569       H  0.99242666  0.64090974  0.34595643     0.11500
H3570       H  0.99703693  0.65476193  0.31872695     0.12700
H3571       H  0.01404818  0.65898894  0.29314175     0.11700
H3572       H  0.05142076  0.60091506  0.31073682     0.08800
H3573       H  0.06933149  0.60783978  0.28689482     0.12100
H3574       H  0.03871542  0.65226942  0.27582942     0.13900
C3575       C  0.85695262  0.69958809  0.14604097    -0.01600
C3576       C  0.84524887  0.69778902  0.13255550    -0.09600
C3577       C  0.83397390  0.68401027  0.13200902    -0.18400
C3578       C  0.83384597  0.67158664  0.14515904     0.04000
C3579       C  0.84635384  0.67298005  0.15830323     0.18200
C3580       C  0.85784059  0.68670450  0.15848801    -0.19800
C3581       C  0.84672860  0.66120414  0.17176240    -0.21100
C3582       C  0.83434762  0.64869717  0.17306195    -0.19600
C3583       C  0.82140091  0.64741234  0.16077936     0.19600
C3584       C  0.82129857  0.65838335  0.14627865     0.01700
C3585       C  0.80825377  0.65599981  0.13394390    -0.14400
C3586       C  0.79533789  0.64399840  0.13647101    -0.12100
C3587       C  0.79485314  0.63411755  0.15139587     0.01200
C3588       C  0.80817930  0.63563919  0.16329010    -0.24300
H3589       H  0.84416177  0.70757467  0.12282087     0.09200
H3590       H  0.82499135  0.68385156  0.12155026     0.12800
H3591       H  0.86673129  0.68796468  0.16905304     0.11500
H3592       H  0.85630544  0.66207044  0.18173979     0.12700
H3593       H  0.83467646  0.64020497  0.18399939     0.11700
H3594       H  0.80748384  0.66349577  0.12240508     0.08800
H3595       H  0.78513853  0.64314639  0.12714821     0.12100
H3596       H  0.80794415  0.62801015  0.17485830     0.13900
C3597       C  0.91039944  0.78287035  0.14479471    -0.01600
C3598       C  0.92602840  0.77836149  0.13735917    -0.09600
C3599       C  0.93812804  0.79088649  0.13344480    -0.18400
C3600       C  0.93493686  0.80842916  0.13685716     0.04000
C3601       C  0.91902745  0.81284431  0.14437170     0.18200
C3602       C  0.90706921  0.80018954  0.14819526    -0.19800
C3603       C  0.91508734  0.82990019  0.14813740    -0.21100
C3604       C  0.92664784  0.84275174  0.14473412    -0.19600
C3605       C  0.94246246  0.83894106  0.13739404     0.19600
C3606       C  0.94685126  0.82176813  0.13321238     0.01700
C3607       C  0.96293719  0.81882332  0.12557724    -0.14400
C3608       C  0.97411880  0.83231641  0.12234930    -0.12100
C3609       C  0.96978166  0.84923769  0.12665230     0.01200
C3610       C  0.95386662  0.85231300  0.13418261    -0.24300
H3611       H  0.92896474  0.76509758  0.13465317     0.09200
H3612       H  0.94989414  0.78646741  0.12783438     0.12800
H3613       H  0.89503814  0.80391151  0.15394088     0.11500
H3614       H  0.90296478  0.83333793  0.15384420     0.12700
H3615       H  0.92317940  0.85580680  0.14788904     0.11700
H3616       H  0.96722312  0.80621734  0.12195387     0.08800
H3617       H  0.98635264  0.82939703  0.11665342     0.12100
H3618       H  0.95010199  0.86523682  0.13729022     0.13900
C3619       C  0.82906521  0.71803890  0.36089139    -0.01600
C3620       C  0.83094056  0.70507835  0.37306040    -0.09600
C3621       C  0.81973463  0.69137230  0.37335758    -0.18400
C3622       C  0.80620895  0.69022571  0.36140034     0.04000
C3623       C  0.80400588  0.70378226  0.34949755     0.18200
C3624       C  0.81544112  0.71742314  0.34928639    -0.19800
C3625       C  0.79052586  0.70356421  0.33773676    -0.21100
C3626       C  0.77919548  0.69006204  0.33743139    -0.19600
C3627       C  0.78125867  0.67630485  0.34866887     0.19600
C3628       C  0.79485181  0.67612378  0.36076339     0.01700
C3629       C  0.79662930  0.66170562  0.37150445    -0.14400
C3630       C  0.78531183  0.64816944  0.37038273    -0.12100
C3631       C  0.77185578  0.64851923  0.35860327     0.01200
C3632       C  0.76986800  0.66263022  0.34778587    -0.24300
H3633       H  0.84137357  0.70531277  0.38216187     0.09200
H3634       H  0.82206580  0.68187668  0.38306107     0.12800
H3635       H  0.81387282  0.72747021  0.33985998     0.11500
H3636       H  0.78873865  0.71391222  0.32869277     0.12700
H3637       H  0.76886958  0.69028110  0.32819018     0.11700
H3638       H  0.80671190  0.66038860  0.38079722     0.08800
H3639       H  0.78710937  0.63735837  0.37885369     0.12100
H3640       H  0.75947068  0.66295552  0.33861698     0.13900
C3641       C  0.90938639  0.72280814  0.36464196    -0.01600
C3642       C  0.91462219  0.71183564  0.35141510    -0.09600
C3643       C  0.92674520  0.69896816  0.35422804    -0.18400
C3644       C  0.93404444  0.69639489  0.37058390     0.04000
C3645       C  0.92929703  0.70799566  0.38383741     0.18200
C3646       C  0.91713770  0.72110183  0.38075902    -0.19800
C3647       C  0.93641697  0.70615843  0.40019129    -0.21100
C3648       C  0.94788195  0.69292842  0.40375962    -0.19600
C3649       C  0.95248609  0.68105605  0.39111631     0.19600
C3650       C  0.94566678  0.68261840  0.37432962     0.01700
C3651       C  0.95051986  0.67010072  0.36216084    -0.14400
C3652       C  0.96166115  0.65669741  0.36646110    -0.12100
C3653       C  0.96850001  0.65513837  0.38301700     0.01200
C3654       C  0.96371679  0.66749598  0.39527269    -0.24300
H3655       H  0.90903308  0.71298505  0.33876510     0.09200
H3656       H  0.92993325  0.69108828  0.34337138     0.12800
H3657       H  0.91321098  0.72950298  0.39108199     0.11500
H3658       H  0.93297192  0.71493526  0.41036612     0.12700
H3659       H  0.95304389  0.69186198  0.41659920     0.11700
H3660       H  0.94583173  0.67021854  0.34918838     0.08800
H3661       H  0.96495750  0.64764790  0.35655394     0.12100
H3662       H  0.96837901  0.66643786  0.40828271     0.13900
C3663       C  0.87182388  0.75762924  0.30229768    -0.01600
C3664       C  0.88780530  0.75840903  0.29445358    -0.09600
C3665       C  0.88931632  0.75689058  0.27665527    -0.18400
C3666       C  0.87477636  0.75451723  0.26616944     0.04000
C3667       C  0.85862192  0.75389747  0.27432398     0.18200
C3668       C  0.85732098  0.75551047  0.29211162    -0.19800
C3669       C  0.84378432  0.75145038  0.26474502    -0.21100
C3670       C  0.84456020  0.74961516  0.24713133    -0.19600
C3671       C  0.86018699  0.75024388  0.23865598     0.19600
C3672       C  0.87557460  0.75266999  0.24795841     0.01700
C3673       C  0.89096926  0.75317261  0.23855957    -0.14400
C3674       C  0.89097024  0.75147377  0.22069694    -0.12100
C3675       C  0.87568637  0.74930674  0.21171726     0.01200
C3676       C  0.86040386  0.74859924  0.22082531    -0.24300
H3677       H  0.89921826  0.75982883  0.30212770     0.09200
H3678       H  0.90201274  0.75743020  0.27150659     0.12800
H3679       H  0.84490186  0.75480880  0.29809275     0.11500
H3680       H  0.83146529  0.75091737  0.27093122     0.12700
H3681       H  0.83281896  0.74774487  0.24006911     0.11700
H3682       H  0.90316284  0.75499016  0.24462497     0.08800
H3683       H  0.90292434  0.75216433  0.21386985     0.12100
H3684       H  0.84851075  0.74686587  0.21396694     0.13900
C3685       C  0.83601256  0.15444904  0.23083748    -0.01600
C3686       C  0.85167260  0.16168356  0.22667469    -0.09600
C3687       C  0.85250445  0.17517038  0.21506400    -0.18400
C3688       C  0.83758852  0.18175011  0.20715890     0.04000
C3689       C  0.82172397  0.17442771  0.21167169     0.18200
C3690       C  0.82108571  0.16103552  0.22347491    -0.19800
C3691       C  0.80657908  0.18023297  0.20412098    -0.21100
C3692       C  0.80683127  0.19300277  0.19186872    -0.19600
C3693       C  0.82222434  0.20031975  0.18696492     0.19600
C3694       C  0.83783022  0.19501287  0.19466731     0.01700
C3695       C  0.85297588  0.20300550  0.18925919    -0.14400
C3696       C  0.85265974  0.21518734  0.17623616    -0.12100
C3697       C  0.83729277  0.21986015  0.16836871     0.01200
C3698       C  0.82210149  0.21266467  0.17405383    -0.24300
H3699       H  0.86337702  0.15672807  0.23221725     0.09200
H3700       H  0.86501912  0.17994640  0.21234770     0.12800
H3701       H  0.80891591  0.15543441  0.22661574     0.11500
H3702       H  0.79446937  0.17468007  0.20753281     0.12700
H3703       H  0.79491273  0.19705047  0.18604239     0.11700
H3704       H  0.86528313  0.19995460  0.19462818     0.08800
H3705       H  0.86453792  0.22070213  0.17206689     0.12100
H3706       H  0.81013632  0.21628261  0.16802817     0.13900
C3707       C  0.84702961  0.13340654  0.30731443    -0.01600
C3708       C  0.86281096  0.14144250  0.30917393    -0.09600
C3709       C  0.86575722  0.15284285  0.32277890    -0.18400
C3710       C  0.85298851  0.15636750  0.33511583     0.04000
C3711       C  0.83753358  0.14711609  0.33379441     0.18200
C3712       C  0.83463750  0.13605685  0.31991651    -0.19800
C3713       C  0.82476184  0.14931698  0.34604996    -0.21100
C3714       C  0.82666989  0.16097061  0.35929605    -0.19600
C3715       C  0.84117705  0.17113009  0.36037261     0.19600
C3716       C  0.85465290  0.16898693  0.34840782     0.01700
C3717       C  0.86867148  0.18017763  0.34982837    -0.14400
C3718       C  0.86876477  0.19345074  0.36199308    -0.12100
C3719       C  0.85512715  0.19575054  0.37338163     0.01200
C3720       C  0.84174041  0.18406795  0.37283755    -0.24300
H3721       H  0.87260018  0.13958623  0.29959887     0.09200
H3722       H  0.87801656  0.15891305  0.32321024     0.12800
H3723       H  0.82244852  0.12977392  0.31867097     0.11500
H3724       H  0.81306001  0.14213804  0.34524365     0.12700
H3725       H  0.81638486  0.16251880  0.36840138     0.11700
H3726       H  0.87932686  0.17946930  0.34117502     0.08800
H3727       H  0.87920589  0.20237854  0.36198803     0.12100
H3728       H  0.83105005  0.18574906  0.38144713     0.13900
C3729       C  0.62954408  0.19739719  0.13491516    -0.01600
C3730       C  0.61574056  0.19677465  0.14624871    -0.09600
C3731       C  0.61466682  0.18394721  0.15871574    -0.18400
C3732       C  0.62762625  0.17136247  0.16053046     0.04000
C3733       C  0.64121733  0.17160157  0.14852846     0.18200
C3734       C  0.64193059  0.18436374  0.13580904    -0.19800
C3735       C  0.65446300  0.15955756  0.14975627    -0.21100
C3736       C  0.65487412  0.14766378  0.16298021    -0.19600
C3737       C  0.64200350  0.14738118  0.17533442     0.19600
C3738       C  0.62798948  0.15898548  0.17413409     0.01700
C3739       C  0.61530067  0.15799544  0.18693420    -0.14400
C3740       C  0.61686693  0.14653708  0.20066249    -0.12100
C3741       C  0.63104286  0.13559388  0.20215462     0.01200
C3742       C  0.64338408  0.13589259  0.18918857    -0.24300
H3743       H  0.60601819  0.20667663  0.14593363     0.09200
H3744       H  0.60383926  0.18457732  0.16713880     0.12800
H3745       H  0.65277501  0.18475491  0.12727008     0.11500
H3746       H  0.66483836  0.15960036  0.14064526     0.12700
H3747       H  0.66554430  0.13880898  0.16373047     0.11700
H3748       H  0.60418560  0.16617785  0.18688881     0.08800
H3749       H  0.60717823  0.14667505  0.21049615     0.12100
H3750       H  0.65445342  0.12756130  0.19018509     0.13900
C3751       C  0.64768452  0.21880623  0.34404248    -0.01600
C3752       C  0.63164843  0.21424648  0.33778272    -0.09600
C3753       C  0.63012933  0.20330266  0.32378413    -0.18400
C3754       C  0.64472400  0.19641708  0.31563846     0.04000
C3755       C  0.66097568  0.20172067  0.32158081     0.18200
C3756       C  0.66229945  0.21284681  0.33561532    -0.19800
C3757       C  0.67582720  0.19547505  0.31383471    -0.21100
C3758       C  0.67493913  0.18340376  0.30082679    -0.19600
C3759       C  0.65917951  0.17727965  0.29527732     0.19600
C3760       C  0.64381097  0.18398254  0.30229916     0.01700
C3761       C  0.62823393  0.17739326  0.29616417    -0.14400
C3762       C  0.62799163  0.16398169  0.28443075    -0.12100
C3763       C  0.64317826  0.15692344  0.27819048     0.01200
C3764       C  0.65871900  0.16398797  0.28322137    -0.24300
H3765       H  0.62016894  0.21891647  0.34393609     0.09200
H3766       H  0.61734780  0.20024561  0.31989076     0.12800
H3767       H  0.67476727  0.21652291  0.34025784     0.11500
H3768       H  0.68824233  0.19962468  0.31817047     0.12700
H3769       H  0.68668654  0.17847000  0.29540413     0.11700
H3770       H  0.61601373  0.18196480  0.30051814     0.08800
H3771       H  0.61582395  0.15885706  0.28050502     0.12100
H3772       H  0.67052816  0.15861281  0.27834756     0.13900
C3773       C  0.69253382  0.09796335  0.25535783    -0.01600
C3774       C  0.70045132  0.09876886  0.27142464    -0.09600
C3775       C  0.71812766  0.09705834  0.27302170    -0.18400
C3776       C  0.72856535  0.09484133  0.25844201     0.04000
C3777       C  0.72041746  0.09378796  0.24218602     0.18200
C3778       C  0.70257672  0.09498901  0.24084181    -0.19800
C3779       C  0.73015381  0.09231056  0.22727530    -0.21100
C3780       C  0.74783846  0.09269540  0.22805913    -0.19600
C3781       C  0.75624851  0.09407583  0.24381537     0.19600
C3782       C  0.74678189  0.09447035  0.25929601     0.01700
C3783       C  0.75599795  0.09489858  0.27489617    -0.14400
C3784       C  0.77376233  0.09607303  0.27504037    -0.12100
C3785       C  0.78287968  0.09698180  0.25971839     0.01200
C3786       C  0.77407545  0.09554522  0.24415379    -0.24300
H3787       H  0.69296804  0.10113053  0.28282270     0.09200
H3788       H  0.72328225  0.09821078  0.28575943     0.12800
H3789       H  0.69657706  0.09453914  0.22833117     0.11500
H3790       H  0.72403904  0.09145260  0.21485112     0.12700
H3791       H  0.75498621  0.09213723  0.21622606     0.11700
H3792       H  0.74983386  0.09453251  0.28718391     0.08800
H3793       H  0.78032645  0.09699835  0.28721858     0.12100
H3794       H  0.78109460  0.09596259  0.23223414     0.13900
C3795       C  0.90025341  0.97360261  0.12803497    -0.01600
C3796       C  0.89821948  0.95853809  0.13754202    -0.09600
C3797       C  0.91096026  0.94574990  0.13791365    -0.18400
C3798       C  0.92645465  0.94760460  0.12888470     0.04000
C3799       C  0.92884588  0.96322519  0.12000372     0.18200
C3800       C  0.91594325  0.97590832  0.11970241    -0.19800
C3801       C  0.94405059  0.96606076  0.11119138    -0.21100
C3802       C  0.95677220  0.95358414  0.11058329    -0.19600
C3803       C  0.95468186  0.93782111  0.11869506     0.19600
C3804       C  0.93960315  0.93460594  0.12813806     0.01700
C3805       C  0.93837340  0.91846121  0.13614949    -0.14400
C3806       C  0.95131212  0.90599382  0.13445564    -0.12100
C3807       C  0.96599412  0.90896011  0.12466256     0.01200
C3808       C  0.96758510  0.92521913  0.11716551    -0.24300
H3809       H  0.88656890  0.95631465  0.14444558     0.09200
H3810       H  0.90826948  0.93444712  0.14524252     0.12800
H3811       H  0.91821009  0.98764991  0.11281621     0.11500
H3812       H  0.94605388  0.97798222  0.10450755     0.12700
H3813       H  0.96826740  0.95620961  0.10345623     0.11700
H3814       H  0.92742888  0.91503564  0.14365239     0.08800
H3815       H  0.94951233  0.89387156  0.14066830     0.12100
H3816       H  0.97896910  0.92825418  0.11006744     0.13900
C3817       C  0.86682926  0.08607372  0.03157138    -0.01600
C3818       C  0.85281693  0.07507780  0.03297896    -0.09600
C3819       C  0.85266828  0.06182380  0.04505849    -0.18400
C3820       C  0.86651746  0.05901408  0.05638813     0.04000
C3821       C  0.88071697  0.06999611  0.05488221     0.18200
C3822       C  0.88077562  0.08314684  0.04259986    -0.19800
C3823       C  0.89471166  0.06802455  0.06587981    -0.21100
C3824       C  0.89486360  0.05549566  0.07849127    -0.19600
C3825       C  0.88107454  0.04447985  0.08041037     0.19600
C3826       C  0.86674963  0.04595225  0.06932171     0.01700
C3827       C  0.85329198  0.03436855  0.07181279    -0.14400
C3828       C  0.85385631  0.02215522  0.08493273    -0.12100
C3829       C  0.86788216  0.02088599  0.09618747     0.01200
C3830       C  0.88150430  0.03212786  0.09352894    -0.24300
H3831       H  0.84159068  0.07672222  0.02516549     0.09200
H3832       H  0.84135864  0.05415014  0.04542027     0.12800
H3833       H  0.89164383  0.09154831  0.04189174     0.11500
H3834       H  0.90558723  0.07636348  0.06483382     0.12700
H3835       H  0.90585119  0.05446626  0.08687236     0.11700
H3836       H  0.84204042  0.03450391  0.06386941     0.08800
H3837       H  0.84295958  0.01402520  0.08615371     0.12100
H3838       H  0.89244060  0.03144428  0.10202519     0.13900
C3839       C  0.87103912  0.01711200  0.16027207    -0.01600
C3840       C  0.86101356  0.01087609  0.17364805    -0.09600
C3841       C  0.85859880  0.02046772  0.18872209    -0.18400
C3842       C  0.86611351  0.03674032  0.19083248     0.04000
C3843       C  0.87695752  0.04251526  0.17754589     0.18200
C3844       C  0.87945301  0.03266622  0.16269844    -0.19800
C3845       C  0.88476499  0.05844762  0.17876568    -0.21100
C3846       C  0.88154054  0.06915375  0.19257878    -0.19600
C3847       C  0.87050504  0.06419061  0.20563305     0.19600
C3848       C  0.86288896  0.04778357  0.20523201     0.01700
C3849       C  0.85200895  0.04350065  0.21898711    -0.14400
C3850       C  0.84822833  0.05532850  0.23202818    -0.12100
C3851       C  0.85514516  0.07176038  0.23181724     0.01200
C3852       C  0.86661254  0.07587161  0.21877200    -0.24300
H3853       H  0.85431940  0.99895122  0.17211592     0.09200
H3854       H  0.85035086  0.01510091  0.19826510     0.12800
H3855       H  0.88751114  0.03750452  0.15259700     0.11500
H3856       H  0.89310208  0.06287399  0.16870971     0.12700
H3857       H  0.88746991  0.08158483  0.19286863     0.11700
H3858       H  0.84591686  0.03126151  0.21975998     0.08800
H3859       H  0.83926494  0.05184349  0.24189992     0.12100
H3860       H  0.87208285  0.08852318  0.21846827     0.13900
C3861       C  0.60620803  0.09696227  0.48400842    -0.01600
C3862       C  0.59153023  0.09456985  0.47403002    -0.09600
C3863       C  0.59123054  0.08278417  0.46056320    -0.18400
C3864       C  0.60566047  0.07262048  0.45657478     0.04000
C3865       C  0.62060577  0.07503113  0.46665332     0.18200
C3866       C  0.62085663  0.08731833  0.48001423    -0.19800
C3867       C  0.63507490  0.06490631  0.46351421    -0.21100
C3868       C  0.63499018  0.05240795  0.45075652    -0.19600
C3869       C  0.62052014  0.04978850  0.44052164     0.19600
C3870       C  0.60571552  0.06000340  0.44314879     0.01700
C3871       C  0.59165457  0.05715207  0.43216553    -0.14400
C3872       C  0.59219629  0.04460461  0.41935458    -0.12100
C3873       C  0.60667112  0.03421527  0.41678503     0.01200
C3874       C  0.62087676  0.03709055  0.42759039    -0.24300
H3875       H  0.58008267  0.10192428  0.47667358     0.09200
H3876       H  0.57936865  0.08172081  0.45369731     0.12800
H3877       H  0.63225176  0.08893172  0.48769817     0.11500
H3878       H  0.64651505  0.06653268  0.47111775     0.12700
H3879       H  0.64639389  0.04474465  0.44885013     0.11700
H3880       H  0.58005371  0.06455501  0.43301378     0.08800
H3881       H  0.58114250  0.04308806  0.41118061     0.12100
H3882       H  0.63250243  0.02985696  0.42599616     0.13900
C3883       C  0.57695258  0.98375280  0.38747990    -0.01600
C3884       C  0.56183136  0.98489724  0.39711355    -0.09600
C3885       C  0.54948238  0.97205697  0.39658560    -0.18400
C3886       C  0.55152108  0.95739253  0.38617943     0.04000
C3887       C  0.56658924  0.95625258  0.37618812     0.18200
C3888       C  0.57902018  0.96926129  0.37691452    -0.19800
C3889       C  0.56924196  0.94201019  0.36560176    -0.21100
C3890       C  0.55742594  0.92882227  0.36488200    -0.19600
C3891       C  0.54253842  0.92940552  0.37472587     0.19600
C3892       C  0.53928771  0.94377630  0.38539753     0.01700
C3893       C  0.52390921  0.94385447  0.39475379    -0.14400
C3894       C  0.51264355  0.93006276  0.39410098    -0.12100
C3895       C  0.51617058  0.91533125  0.38426333     0.01200
C3896       C  0.53100345  0.91559243  0.37409060    -0.24300
H3897       H  0.55926704  0.99587421  0.40512315     0.09200
H3898       H  0.53843722  0.97398445  0.40453032     0.12800
H3899       H  0.59047085  0.96777698  0.36941647     0.11500
H3900       H  0.58063542  0.94099397  0.35786599     0.12700
H3901       H  0.56004058  0.91798740  0.35663129     0.11700
H3902       H  0.52017813  0.95447316  0.40272935     0.08800
H3903       H  0.50100728  0.93138637  0.40127345     0.12100
H3904       H  0.53382118  0.90474407  0.36591877     0.13900
C3905       C  0.61701909  0.07433592  0.27665450    -0.01600
C3906       C  0.62374800  0.05770506  0.27751322    -0.09600
C3907       C  0.61964374  0.04680969  0.29115261    -0.18400
C3908       C  0.60877303  0.05232306  0.30456293     0.04000
C3909       C  0.60089600  0.06866402  0.30281783     0.18200
C3910       C  0.60495466  0.07935136  0.28895728    -0.19800
C3911       C  0.58972590  0.07469385  0.31542893    -0.21100
C3912       C  0.58701296  0.06536010  0.33028269    -0.19600
C3913       C  0.59545642  0.04976782  0.33299114     0.19600
C3914       C  0.60607674  0.04272307  0.32000676     0.01700
C3915       C  0.61417063  0.02684556  0.32351175    -0.14400
C3916       C  0.61264484  0.01893488  0.33957448    -0.12100
C3917       C  0.60296478  0.02647482  0.35266551     0.01200
C3918       C  0.59391789  0.04160468  0.34896649    -0.24300
H3919       H  0.63295624  0.05340704  0.26812149     0.09200
H3920       H  0.62569480  0.03439901  0.29122788     0.12800
H3921       H  0.59948391  0.09210423  0.28837668     0.11500
H3922       H  0.58348760  0.08702610  0.31407624     0.12700
H3923       H  0.57872195  0.07070104  0.34001997     0.11700
H3924       H  0.62225355  0.02054343  0.31428955     0.08800
H3925       H  0.61977730  0.00728254  0.34200116     0.12100
H3926       H  0.58606720  0.04741016  0.35881265     0.13900
C3927       C  0.70514521  0.84792923  0.36271511    -0.01600
C3928       C  0.69790564  0.84355073  0.37840817    -0.09600
C3929       C  0.68553815  0.83088979  0.37928683    -0.18400
C3930       C  0.67998952  0.82227493  0.36436130     0.04000
C3931       C  0.68757054  0.82673757  0.34850846     0.18200
C3932       C  0.69997775  0.83940425  0.34785141    -0.19800
C3933       C  0.68271354  0.81859990  0.33334414    -0.21100
C3934       C  0.67047362  0.80597906  0.33354563    -0.19600
C3935       C  0.66273269  0.80129000  0.34889777     0.19600
C3936       C  0.66724458  0.80941550  0.36453807     0.01700
C3937       C  0.65872407  0.80434317  0.37960345    -0.14400
C3938       C  0.64637831  0.79165600  0.37911918    -0.12100
C3939       C  0.64222206  0.78361534  0.36369390     0.01200
C3940       C  0.65042614  0.78850212  0.34864755    -0.24300
H3941       H  0.70176507  0.84998172  0.39005034     0.09200
H3942       H  0.68058116  0.82816813  0.39181313     0.12800
H3943       H  0.70552756  0.84274621  0.33562684     0.11500
H3944       H  0.68845474  0.82199558  0.32123551     0.12700
H3945       H  0.66701101  0.79986368  0.32159448     0.11700
H3946       H  0.66123484  0.80996433  0.39192935     0.08800
H3947       H  0.64008934  0.78809900  0.39088703     0.12100
H3948       H  0.64713828  0.78240752  0.33662590     0.13900
C3949       C  0.78516217  0.86703246  0.37567437    -0.01600
C3950       C  0.78600273  0.85531167  0.38923159    -0.09600
C3951       C  0.79943053  0.84335623  0.39045510    -0.18400
C3952       C  0.81226678  0.84236508  0.37776749     0.04000
C3953       C  0.81182674  0.85489691  0.36459545     0.18200
C3954       C  0.79860476  0.86719776  0.36388223    -0.19800
C3955       C  0.82400360  0.85447944  0.35155604    -0.21100
C3956       C  0.83608655  0.84140181  0.35074973    -0.19600
C3957       C  0.83643530  0.82840088  0.36302161     0.19600
C3958       C  0.82489061  0.82891113  0.37702134     0.01700
C3959       C  0.82599763  0.81544220  0.38908097    -0.14400
C3960       C  0.83709584  0.80147118  0.38656229    -0.12100
C3961       C  0.84769147  0.80054053  0.37214704     0.01200
C3962       C  0.84771752  0.81444692  0.36082665    -0.24300
H3963       H  0.77582649  0.85488494  0.39853923     0.09200
H3964       H  0.79899238  0.83453144  0.40101655     0.12800
H3965       H  0.79806829  0.87606297  0.35324074     0.11500
H3966       H  0.82380117  0.86401401  0.34151591     0.12700
H3967       H  0.84491348  0.84117868  0.34011602     0.11700
H3968       H  0.81800761  0.81506870  0.40026515     0.08800
H3969       H  0.83686008  0.79100382  0.39559609     0.12100
H3970       H  0.85582415  0.81395144  0.34962606     0.13900
C3971       C  0.70447946  0.92710701  0.36619660    -0.01600
C3972       C  0.68881509  0.92511836  0.35772809    -0.09600
C3973       C  0.67537610  0.93666442  0.36001099    -0.18400
C3974       C  0.67701909  0.95095485  0.37086171     0.04000
C3975       C  0.69310562  0.95348909  0.37893542     0.18200
C3976       C  0.70658807  0.94147720  0.37675888    -0.19800
C3977       C  0.69555470  0.96799941  0.38911474    -0.21100
C3978       C  0.68240164  0.97986666  0.39156616    -0.19600
C3979       C  0.66625138  0.97735940  0.38429884     0.19600
C3980       C  0.66328329  0.96279637  0.37395283     0.01700
C3981       C  0.64659214  0.96055377  0.36745882    -0.14400
C3982       C  0.63343052  0.97216575  0.37118364    -0.12100
C3983       C  0.63628661  0.98665992  0.38131877     0.01200
C3984       C  0.65298806  0.98921922  0.38755613    -0.24300
H3985       H  0.68675711  0.91430947  0.34934074     0.09200
H3986       H  0.66386807  0.93407808  0.35296749     0.12800
H3987       H  0.71867606  0.94335750  0.38319288     0.11500
H3988       H  0.70775312  0.97021764  0.39520525     0.12700
H3989       H  0.68479903  0.99094695  0.39950145     0.11700
H3990       H  0.64314274  0.94966853  0.35980457     0.08800
H3991       H  0.62088209  0.96940159  0.36631200     0.12100
H3992       H  0.65586401  0.00045667  0.39503830     0.13900
C3993       C  0.69055905  0.85976597  0.15677340    -0.01600
C3994       C  0.68636386  0.85161954  0.14134403    -0.09600
C3995       C  0.67342097  0.83934246  0.14066901    -0.18400
C3996       C  0.66425561  0.83470766  0.15553119     0.04000
C3997       C  0.66781172  0.84387449  0.17084927     0.18200
C3998       C  0.68073600  0.85621685  0.17130229    -0.19800
C3999       C  0.65898546  0.84015330  0.18589788    -0.21100
C4000       C  0.64716123  0.82707874  0.18630508    -0.19600
C4001       C  0.64389520  0.81724315  0.17171094     0.19600
C4002       C  0.65215632  0.82100596  0.15600434     0.01700
C4003       C  0.64836262  0.81044753  0.14175091    -0.14400
C4004       C  0.63735681  0.79644634  0.14325608    -0.12100
C4005       C  0.62970058  0.79251480  0.15894458     0.01200
C4006       C  0.63282154  0.80327105  0.17298301    -0.24300
H4007       H  0.69375004  0.85403056  0.12993510     0.09200
H4008       H  0.67123093  0.83328684  0.12847346     0.12800
H4009       H  0.68379784  0.86240851  0.18333253     0.11500
H4010       H  0.66152592  0.84716827  0.19758170     0.12700
H4011       H  0.64083427  0.82434867  0.19828734     0.11700
H4012       H  0.65408105  0.81243710  0.12939886     0.08800
H4013       H  0.63531457  0.78831285  0.13223735     0.12100
H4014       H  0.62702877  0.80041244  0.18521552     0.13900
C4015       C  0.76139164  0.83287231  0.14703895    -0.01600
C4016       C  0.77222371  0.83306445  0.13288954    -0.09600
C4017       C  0.78409208  0.81990480  0.13045654    -0.18400
C4018       C  0.78543599  0.80630605  0.14231416     0.04000
C4019       C  0.77313119  0.80545886  0.15560017     0.18200
C4020       C  0.76119319  0.81861456  0.15772019    -0.19800
C4021       C  0.77358194  0.79217725  0.16751031    -0.21100
C4022       C  0.78686475  0.78041901  0.16741420    -0.19600
C4023       C  0.79994499  0.78173608  0.15541556     0.19600
C4024       C  0.79915315  0.79424275  0.14225858     0.01700
C4025       C  0.81272536  0.79479481  0.13038844    -0.14400
C4026       C  0.82708390  0.78430349  0.13241949    -0.12100
C4027       C  0.82819175  0.77294667  0.14617703     0.01200
C4028       C  0.81430413  0.77121352  0.15715229    -0.24300
H4029       H  0.77237802  0.84398618  0.12440126     0.09200
H4030       H  0.79255320  0.82118582  0.11972268     0.12800
H4031       H  0.75254128  0.81837171  0.16851511     0.11500
H4032       H  0.76405326  0.79135781  0.17747420     0.12700
H4033       H  0.78731827  0.77071210  0.17728413     0.11700
H4034       H  0.81292587  0.80361335  0.11982647     0.08800
H4035       H  0.83764660  0.78562634  0.12365538     0.12100
H4036       H  0.81500447  0.76217765  0.16764719     0.13900
C4037       C  0.77533012  0.91324742  0.14743216    -0.01600
C4038       C  0.79226641  0.90749303  0.14592680    -0.09600
C4039       C  0.80555465  0.91881130  0.14280862    -0.18400
C4040       C  0.80244786  0.93652013  0.14109382     0.04000
C4041       C  0.78521304  0.94230847  0.14203605     0.18200
C4042       C  0.77188482  0.93071410  0.14521744    -0.19800
C4043       C  0.78141295  0.95968336  0.13996739    -0.21100
C4044       C  0.79428252  0.97142280  0.13699168    -0.19600
C4045       C  0.81137959  0.96619330  0.13627594     0.19600
C4046       C  0.81576989  0.94868377  0.13849556     0.01700
C4047       C  0.83330827  0.94420723  0.13816206    -0.14400
C4048       C  0.84583892  0.95654188  0.13551084    -0.12100
C4049       C  0.84141706  0.97368407  0.13292935     0.01200
C4050       C  0.82412235  0.97840318  0.13333064    -0.24300
H4051       H  0.79537105  0.89407102  0.14741427     0.09200
H4052       H  0.81814108  0.91329393  0.14186575     0.12800
H4053       H  0.75888119  0.93534872  0.14630900     0.11500
H4054       H  0.76835696  0.96424344  0.14061924     0.12700
H4055       H  0.79083108  0.98475134  0.13536605     0.11700
H4056       H  0.83776228  0.93127350  0.13991429     0.08800
H4057       H  0.85902622  0.95252918  0.13490227     0.12100
H4058       H  0.82059033  0.99167626  0.13137474     0.13900
C4059       C  0.74625370  0.88423753  0.21557663    -0.01600
C4060       C  0.74498264  0.90023483  0.22345299    -0.09600
C4061       C  0.74657467  0.90179492  0.24121772    -0.18400
C4062       C  0.74922093  0.88725023  0.25167940     0.04000
C4063       C  0.75039268  0.87104854  0.24351636     0.18200
C4064       C  0.74915636  0.86974364  0.22567572    -0.19800
C4065       C  0.75243822  0.85616024  0.25319852    -0.21100
C4066       C  0.75296612  0.85693411  0.27092967    -0.19600
C4067       C  0.75176082  0.87264108  0.27938505     0.19600
C4068       C  0.75026563  0.88808580  0.26992788     0.01700
C4069       C  0.74962154  0.90361348  0.27920598    -0.14400
C4070       C  0.74954273  0.90369166  0.29710014    -0.12100
C4071       C  0.75010468  0.88836411  0.30625078     0.01200
C4072       C  0.75162320  0.87292699  0.29731138    -0.24300
H4073       H  0.74274399  0.91159348  0.21584910     0.09200
H4074       H  0.74534349  0.91449791  0.24639265     0.12800
H4075       H  0.75000536  0.85728110  0.21965695     0.11500
H4076       H  0.75330984  0.84378647  0.24702270     0.12700
H4077       H  0.75419463  0.84513964  0.27808986     0.11700
H4078       H  0.74895417  0.91588539  0.27301716     0.08800
H4079       H  0.74843693  0.91577106  0.30378145     0.12100
H4080       H  0.75222841  0.86099996  0.30433660     0.13900
loop_ 
_geom_bond_atom_site_label_1 
_geom_bond_atom_site_label_2 
_geom_bond_distance 
_geom_bond_site_symmetry_2 
_ccdc_geom_bond_type 
In1           O3   2.252       .  S
In1           O4   2.215       .  S
In1          O12   2.294       .  S
In1           O6   2.248       .  S
In1           O8   2.305       .  S
In1           O9   2.206       .  S
In1          O10   2.226       .  S
In1          O13   2.242       .  S
C2            O8   1.270       .  A
C2           O10   1.256       .  A
C2         C4037   1.493       .  S
O3           C11   1.267       .  A
O4           C11   1.262       .  A
C5           O12   1.264       .  A
C5            O6   1.256       .  A
C5         C3993   1.493       .  S
C7            O9   1.261       .  A
C7           O13   1.263       .  A
C7         C4015   1.463       .  S
C11        C4059   1.474       .  S
In14         O16   2.255       .  S
In14         O17   2.218       .  S
In14         O25   2.276       .  S
In14         O19   2.272       .  S
In14         O21   2.220       .  S
In14         O22   2.215       .  S
In14         O23   2.327       .  S
In14         O26   2.256       .  S
C15          O21   1.254       .  A
C15          O23   1.269       .  A
C15        C3971   1.496       .  S
O16          C24   1.266       .  A
O17          C24   1.261       .  A
C18          O25   1.260       .  A
C18          O19   1.261       .  A
C18        C3949   1.493       .  S
C20          O22   1.259       .  A
C20          O26   1.265       .  A
C20        C3927   1.472       .  S
C24        C4071   1.474       .  S
C27          C28   1.542       .  S
C27          C33   1.535       .  S
C27          C31   1.544       .  S
C27        C3873   1.552       .  S
C28          H35   1.084       .  S
C28          C29   1.378   1_545  D
C29          C30   1.560   1_565  S
C29        C3883   1.523       .  S
C30          C34   1.549       .  S
C30          C32   1.555   1_545  S
C30          H36   1.105   1_545  S
C31          H37   1.078       .  S
C31          C32   1.373   1_545  D
C32        C3983   1.512       .  S
C33          H38   1.086       .  S
C33          C34   1.367       .  D
C34        C3917   1.502       .  S
C39          C40   1.540   1_545  S
C39          C45   1.530       .  S
C39          C43   1.546   1_545  S
C39        C3829   1.545       .  S
C40          H47   1.085       .  S
C40          C41   1.376       .  D
C41          C42   1.558       .  S
C41        C3795   1.515       .  S
C42          C46   1.554   1_565  S
C42          C44   1.548       .  S
C42          H48   1.109       .  S
C43          H49   1.081       .  S
C43          C44   1.367       .  D
C44        C4049   1.493       .  S
C45          H50   1.087       .  S
C45          C46   1.366       .  D
C46        C3839   1.499       .  S
In51         O53   2.249       .  S
In51         O54   2.244       .  S
In51         O62   2.280       .  S
In51         O56   2.288       .  S
In51         O58   2.259       .  S
In51         O59   2.256       .  S
In51         O60   2.306       .  S
In51         O63   2.241       .  S
C52          O58   1.254       .  A
C52          O60   1.261       .  A
C52        C3905   1.494       .  S
O53          C61   1.266       .  A
O54          C61   1.265       .  A
C55          O62   1.255       .  A
C55          O56   1.257       .  A
C55        C3741   1.493       .  S
C57          O59   1.259       .  A
C57          O63   1.258       .  A
C57        C3763   1.473       .  S
C61        C3773   1.481       .  S
In64         O66   2.255       .  S
In64         O67   2.236       .  S
In64         O75   2.248       .  S
In64         O69   2.297       .  S
In64         O71   2.245       .  S
In64         O72   2.232       .  S
In64         O73   2.294       .  S
In64         O76   2.247       .  S
C65          O71   1.256       .  A
C65          O73   1.263       .  A
C65        C3851   1.489       .  S
O66          C74   1.266       .  A
O67          C74   1.262       .  A
C68          O75   1.256       .  A
C68          O69   1.263       .  A
C68        C3707   1.487       .  S
C70          O72   1.259       .  A
C70          O76   1.260       .  A
C70        C3685   1.471       .  S
C74        C3785   1.479       .  S
In77         O79   2.255       .  S
In77         O80   2.216       .  S
In77         O88   2.224       .  S
In77         O82   2.309       .  S
In77         O84   2.273       .  S
In77         O85   2.236       .  S
In77         O86   2.286       .  S
In77         O89   2.253       .  S
C78          O84   1.259       .  A
C78          O86   1.260       .  A
C78        C3961   1.495       .  S
O79          C87   1.266       .  A
O80          C87   1.262       .  A
C81          O88   1.255       .  A
C81          O82   1.268       .  A
C81        C3641   1.489       .  S
C83          O85   1.259       .  A
C83          O89   1.262       .  A
C83        C3619   1.475       .  S
C87        C3663   1.476       .  S
In90         O92   2.253       .  S
In90         O93   2.212       .  S
In90        O101   2.270       .  S
In90         O95   2.270       .  S
In90         O97   2.299       .  S
In90         O98   2.218       .  S
In90         O99   2.227       .  S
In90        O102   2.269       .  S
C91          O97   1.268       .  A
C91          O99   1.257       .  A
C91        C3597   1.491       .  S
O92         C100   1.263       .  A
O93         C100   1.260       .  A
C94         O101   1.260       .  A
C94          O95   1.259       .  A
C94        C3575   1.492       .  S
C96          O98   1.259       .  A
C96         O102   1.265       .  A
C96        C3675   1.477       .  S
C100       C4027   1.469       .  S
C103        C104   1.535       .  S
C103        C109   1.543   1_455  S
C103        C107   1.539   1_455  S
C103       C3509   1.544       .  S
C104        H111   1.086       .  S
C104        C105   1.365   1_455  D
C105        C106   1.550       .  S
C105       C3553   1.494   1_655  S
C106        C110   1.550       .  S
C106        C108   1.553       .  S
C106        H112   1.107       .  S
C107        H113   1.085       .  S
C107        C108   1.375       .  D
C108       C3653   1.508       .  S
C109        H114   1.081       .  S
C109        C110   1.369       .  D
C110       C3531   1.504       .  S
C115        C116   1.540       .  S
C115        C121   1.548   1_455  S
C115        C119   1.539   1_455  S
C115       C3465   1.551       .  S
C116        H123   1.086       .  S
C116        C117   1.365       .  D
C117        C118   1.548   1_455  S
C117       C3499   1.499       .  S
C118        C122   1.557       .  S
C118        C120   1.550       .  S
C118        H124   1.108       .  S
C119        H125   1.086       .  S
C119        C120   1.371       .  D
C120       C3609   1.503       .  S
C121        H126   1.081       .  S
C121        C122   1.379       .  D
C122       C3807   1.519       .  S
In127       O129   2.248       .  S
In127       O130   2.223       .  S
In127       O138   2.294       .  S
In127       O132   2.282       .  S
In127       O134   2.285       .  S
In127       O135   2.271       .  S
In127       O136   2.283       .  S
In127       O139   2.235       .  S
C128        O134   1.259       .  A
C128        O136   1.260       .  A
C128       C3487   1.497       .  S
O129        C137   1.262       .  A
O130        C137   1.259       .  A
C131        O138   1.260       .  A
C131        O132   1.257       .  A
C131       C3433   1.498       .  S
C133        O135   1.266       .  A
C133        O139   1.259       .  A
C133       C3443   1.480       .  S
C137       C3399   1.468       .  S
In140       O142   2.244       .  S
In140       O143   2.241       .  S
In140       O151   2.301       .  S
In140       O145   2.261       .  S
In140       O147   2.280       .  S
In140       O148   2.241       .  S
In140       O149   2.278       .  S
In140       O152   2.251       .  S
C141        O147   1.259       .  A
C141        O149   1.257       .  A
C141       C3565   1.494       .  S
O142        C150   1.259       .  A
O143        C150   1.260       .  A
C144        O151   1.262       .  A
C144        O145   1.256       .  A
C144       C3355   1.496       .  S
C146        O148   1.262       .  A
C146        O152   1.264       .  A
C146       C3455   1.474       .  S
C150       C3377   1.472       .  S
C153        C154   1.531       .  S
C153        C159   1.548       .  S
C153        C157   1.544       .  S
C153       C3279   1.547       .  S
C154        H161   1.086       .  S
C154        C155   1.366       .  D
C155        C156   1.550       .  S
C155       C3333   1.497       .  S
C156        C160   1.548       .  S
C156        C158   1.549       .  S
C156        H162   1.109       .  S
C157        H163   1.086       .  S
C157        C158   1.372       .  D
C158       C3311   1.498       .  S
C159        H164   1.079       .  S
C159        C160   1.372       .  D
C160       C3289   1.506       .  S
In165       O167   2.249       .  S
In165       O168   2.242       .  S
In165       O176   2.259       .  S
In165       O170   2.292       .  S
In165       O172   2.315       .  S
In165       O173   2.233       .  S
In165       O174   2.234       .  S
In165       O177   2.246       .  S
C166        O172   1.263       .  A
C166        O174   1.252       .  A
C166       C3223   1.489       .  S
O167        C175   1.259       .  A
O168        C175   1.259       .  A
C169        O176   1.257       .  A
C169        O170   1.262       .  A
C169       C3201   1.493       .  S
C171        O173   1.265       .  A
C171        O177   1.265       .  A
C171       C3245   1.477       .  S
C175       C3179   1.473       .  S
In178       O180   2.246       .  S
In178       O181   2.231       .  S
In178       O189   2.274       .  S
In178       O183   2.276       .  S
In178       O185   2.259       .  S
In178       O186   2.235       .  S
In178       O187   2.290       .  S
In178       O190   2.262       .  S
C179        O185   1.255       .  A
C179        O187   1.261       .  A
C179       C3345   1.491       .  S
O180        C188   1.262       .  A
O181        C188   1.261       .  A
C182        O189   1.258       .  A
C182        O183   1.258       .  A
C182       C3157   1.491       .  S
C184        O186   1.261       .  A
C184        O190   1.264       .  A
C184       C3257   1.479       .  S
C188       C3147   1.472       .  S
C191        C192   1.537       .  S
C191        C197   1.545       .  S
C191        C195   1.544       .  S
C191       C3895   1.557       .  S
C192        H199   1.086       .  S
C192        C193   1.369       .  D
C193        C194   1.554       .  S
C193       C3113   1.503       .  S
C194        C198   1.555       .  S
C194        C196   1.550       .  S
C194        H200   1.108       .  S
C195        H201   1.086       .  S
C195        C196   1.375       .  D
C196       C3235   1.504       .  S
C197        H202   1.079       .  S
C197        C198   1.372       .  D
C198       C3091   1.515       .  S
In203       O205   2.260       .  S
In203       O206   2.226       .  S
In203       O214   2.273       .  S
In203       O208   2.277       .  S
In203       O210   2.314       .  S
In203       O211   2.226       .  S
In203       O212   2.243       .  S
In203       O215   2.242       .  S
C204        O210   1.265       .  A
C204        O212   1.254       .  A
C204       C3047   1.492       .  S
O205        C213   1.265       .  A
O206        C213   1.259       .  A
C207        O214   1.260       .  A
C207        O208   1.258       .  A
C207       C3125   1.494       .  S
C209        O211   1.261       .  A
C209        O215   1.263       .  A
C209       C3939   1.470       .  S
C213       C3081   1.474       .  S
In216       O218   2.254       .  S
In216       O219   2.216       .  S
In216       O227   2.305       .  S
In216       O221   2.246       .  S
In216       O223   2.321       .  S
In216       O224   2.207       .  S
In216       O225   2.220       .  S
In216       O228   2.265       .  S
C217        O223   1.268       .  A
C217        O225   1.254       .  A
C217       C3323   1.495       .  S
O218        C226   1.264       .  A
O219        C226   1.260       .  A
C220        O227   1.266       .  A
C220        O221   1.257       .  A
C220       C4005   1.496       .  S
C222        O224   1.259       .  A
C222        O228   1.266       .  A
C222       C3069   1.471       .  S
C226       C3025   1.474       .  S
In229       O231   2.261       .  S
In229       O232   2.217       .  S
In229       O240   2.257       .  S
In229       O234   2.296       .  S
In229       O236   2.234       .  S
In229       O237   2.230       .  S
In229       O238   2.306       .  S
In229       O241   2.251       .  S
C230        O236   1.255       .  A
C230        O238   1.264       .  A
C230       C2981   1.492       .  S
O231        C239   1.267       .  A
O232        C239   1.262       .  A
C233        O240   1.255       .  A
C233        O234   1.262       .  A
C233       C3587   1.488       .  S
C235        O237   1.260       .  A
C235        O241   1.260       .  A
C235       C3037   1.473       .  S
C239       C3003   1.477       .  S
In242       O244   2.260       .  S
In242       O245   2.240       .  S
In242       O253   2.246       .  S
In242       O247   2.305       .  S
In242       O249   2.286       .  S
In242       O250   2.253       .  S
In242       O251   2.262       .  S
In242       O254   2.231       .  S
C243        O249   1.260       .  A
C243        O251   1.258       .  A
C243       C2959   1.493       .  S
O244        C252   1.263       .  A
O245        C252   1.260       .  A
C246        O253   1.255       .  A
C246        O247   1.264       .  A
C246       C3059   1.495       .  S
C248        O250   1.261       .  A
C248        O254   1.259       .  A
C248       C3631   1.473       .  S
C252       C3015   1.477       .  S
C255        C256   1.542       .  S
C255        C261   1.527       .  S
C255        C259   1.547       .  S
C255       C3543   1.542       .  S
C256        H263   1.085       .  S
C256        C257   1.372       .  D
C257        C258   1.554       .  S
C257       C2915   1.508       .  S
C258        C262   1.555       .  S
C258        C260   1.555       .  S
C258        H264   1.107       .  S
C259        H265   1.083       .  S
C259        C260   1.376       .  D
C260       C2937   1.510       .  S
C261        H266   1.086       .  S
C261        C262   1.364       .  D
C262       C2971   1.504       .  S
C267        C268   1.543       .  S
C267        C273   1.527       .  S
C267        C271   1.541       .  S
C267       C3301   1.543       .  S
C268        H275   1.082       .  S
C268        C269   1.378       .  D
C269        C270   1.561       .  S
C269       C2883   1.524       .  S
C270        C274   1.550       .  S
C270        C272   1.550       .  S
C270        H276   1.106       .  S
C271        H277   1.084       .  S
C271        C272   1.371       .  D
C272       C2905   1.496       .  S
C273        H278   1.086       .  S
C273        C274   1.367       .  D
C274       C2993   1.502       .  S
In279       O281   2.217       .  S
In279       O282   2.261       .  S
In279       O290   2.270       .  S
In279       O284   2.265       .  S
In279       O286   2.211       .  S
In279       O287   2.228       .  S
In279       O288   2.305       .  S
In279       O291   2.247       .  S
C280        O286   1.255       .  A
C280        O288   1.268       .  A
C280       C2893   1.487       .  S
O281        C289   1.260       .  A
O282        C289   1.264       .  A
C283        O290   1.260       .  A
C283        O284   1.259       .  A
C283       C2827   1.490       .  S
C285        O287   1.261       .  A
C285        O291   1.263       .  A
C285       C2805   1.473       .  S
C289       C2861   1.476       .  S
In292       O294   2.257       .  S
In292       O295   2.221       .  S
In292       O303   2.231       .  S
In292       O297   2.316       .  S
In292       O299   2.278       .  S
In292       O300   2.220       .  S
In292       O301   2.267       .  S
In292       O304   2.250       .  S
C293        O299   1.259       .  A
C293        O301   1.259       .  A
C293       C2795   1.490       .  S
O294        C302   1.262       .  A
O295        C302   1.258       .  A
C296        O303   1.255       .  A
C296        O297   1.268       .  A
C296       C2949   1.494       .  S
C298        O300   1.263       .  A
C298        O304   1.266       .  A
C298       C2849   1.471       .  S
C302       C2761   1.472       .  S
In305       O307   2.229       .  S
In305       O308   2.245       .  S
In305       O316   2.240       .  S
In305       O310   2.310       .  S
In305       O312   2.301       .  S
In305       O313   2.258       .  S
In305       O314   2.258       .  S
In305       O317   2.239       .  S
C306        O312   1.262       .  A
C306        O314   1.255       .  A
C306       C2685   1.491       .  S
O307        C315   1.260       .  A
O308        C315   1.262       .  A
C309        O316   1.254       .  A
C309        O310   1.266       .  A
C309       C2717   1.491       .  S
C311        O313   1.265       .  A
C311        O317   1.262       .  A
C311       C2739   1.479       .  S
C315       C2695   1.470       .  S
In318       O320   2.238       .  S
In318       O321   2.238       .  S
In318       O329   2.232       .  S
In318       O323   2.316       .  S
In318       O325   2.246       .  S
In318       O326   2.231       .  S
In318       O327   2.294       .  S
In318       O330   2.258       .  S
C319        O325   1.258       .  A
C319        O327   1.264       .  A
C319       C2629   1.493       .  S
O320        C328   1.262       .  A
O321        C328   1.262       .  A
C322        O329   1.254       .  A
C322        O323   1.266       .  A
C322       C2651   1.496       .  S
C324        O326   1.261       .  A
C324        O330   1.264       .  A
C324       C2751   1.474       .  S
C328       C2607   1.474       .  S
C331        C332   1.548   1_455  S
C331        C337   1.532       .  S
C331        C335   1.542   1_455  S
C331       C2541   1.544       .  S
C332        H339   1.081       .  S
C332        C333   1.373       .  D
C333        C334   1.554       .  S
C333       C2563   1.511       .  S
C334        C338   1.551   1_655  S
C334        C336   1.552       .  S
C334        H340   1.110       .  S
C335        H341   1.086       .  S
C335        C336   1.369       .  D
C336       C2663   1.499       .  S
C337        H342   1.087       .  S
C337        C338   1.366       .  D
C338       C2585   1.496       .  S
C343        C344   1.548       .  S
C343        C349   1.537       .  S
C343        C347   1.540       .  S
C343       C2475   1.550       .  S
C344        H351   1.079       .  S
C344        C345   1.369       .  D
C345        C346   1.551       .  S
C345       C2497   1.510   1_655  S
C346        C350   1.550       .  S
C346        C348   1.555       .  S
C346        H352   1.108   1_655  S
C347        H353   1.085       .  S
C347        C348   1.373       .  D
C348       C2531   1.507   1_655  S
C349        H354   1.086       .  S
C349        C350   1.370       .  D
C350       C2729   1.502       .  S
In355       O357   2.236       .  S
In355       O358   2.253       .  S
In355       O366   2.278       .  S
In355       O360   2.279       .  S
In355       O362   2.271       .  S
In355       O363   2.245       .  S
In355       O364   2.288       .  S
In355       O367   2.245       .  S
C356        O362   1.257       .  A
C356        O364   1.260       .  A
C356       C2409   1.493       .  S
O357        C365   1.259       .  A
O358        C365   1.261       .  A
C359        O366   1.257       .  A
C359        O360   1.258       .  A
C359       C2597   1.493       .  S
C361        O363   1.263       .  A
C361        O367   1.263       .  A
C361       C2453   1.476       .  S
C365       C2443   1.474       .  S
In368       O370   2.244       .  S
In368       O371   2.233       .  S
In368       O379   2.222       .  S
In368       O373   2.310       .  S
In368       O375   2.256       .  S
In368       O376   2.223       .  S
In368       O377   2.278       .  S
In368       O380   2.260       .  S
C369        O375   1.259       .  A
C369        O377   1.263       .  A
C369       C2387   1.489       .  S
O370        C378   1.263       .  A
O371        C378   1.261       .  A
C372        O379   1.255       .  A
C372        O373   1.266       .  A
C372       C2519   1.491       .  S
C374        O376   1.260       .  A
C374        O380   1.265       .  A
C374       C2465   1.475       .  S
C378       C2365   1.475       .  S
In381       O383   2.244       .  S
In381       O384   2.217       .  S
In381       O392   2.251       .  S
In381       O386   2.292       .  S
In381       O388   2.317       .  S
In381       O389   2.220       .  S
In381       O390   2.220       .  S
In381       O393   2.252       .  S
C382        O388   1.268       .  A
C382        O390   1.254       .  A
C382       C2333   1.495       .  S
O383        C391   1.263       .  A
O384        C391   1.261       .  A
C385        O392   1.258       .  A
C385        O386   1.266       .  A
C385       C2641   1.493       .  S
C387        O389   1.260       .  A
C387        O393   1.265       .  A
C387       C2343   1.468       .  S
C391       C2299   1.471       .  S
In394       O396   2.252       .  S
In394       O397   2.209       .  S
In394       O405   2.221       .  S
In394       O399   2.305       .  S
In394       O401   2.290       .  S
In394       O402   2.236       .  S
In394       O403   2.247       .  S
In394       O406   2.232       .  S
C395        O401   1.264       .  A
C395        O403   1.257       .  A
C395       C2267   1.490       .  S
O396        C404   1.265       .  A
O397        C404   1.261       .  A
C398        O405   1.253       .  A
C398        O399   1.269       .  A
C398       C2277   1.489       .  S
C400        O402   1.262       .  A
C400        O406   1.262       .  A
C400       C2707   1.472       .  S
C404       C2355   1.465       .  S
C407        C408   1.540       .  S
C407        C413   1.544       .  S
C407        C411   1.539       .  S
C407       C2871   1.556       .  S
C408        H415   1.086       .  S
C408        C409   1.370       .  D
C409        C410   1.547       .  S
C409       C2233   1.496       .  S
C410        C414   1.557   1_554  S
C410        C412   1.553   1_554  S
C410        H416   1.109   1_554  S
C411        H417   1.086       .  S
C411        C412   1.373   1_554  D
C412       C2321   1.503       .  S
C413        H418   1.075       .  S
C413        C414   1.372   1_554  D
C414       C2211   1.518       .  S
C419        C420   1.529       .  S
C419        C425   1.535       .  S
C419        C423   1.541       .  S
C419       C3817   1.543       .  S
C420        H427   1.086       .  S
C420        C421   1.365       .  D
C421        C422   1.546       .  S
C421       C2201   1.495       .  S
C422        C426   1.557   1_554  S
C422        C424   1.554   1_554  S
C422        H428   1.107   1_554  S
C423        H429   1.080       .  S
C423        C424   1.373   1_554  D
C424       C2289   1.503       .  S
C425        H430   1.083       .  S
C425        C426   1.377   1_554  D
C426       C2487   1.513       .  S
In431       O433   2.248       .  S
In431       O434   2.222       .  S
In431       O442   2.254       .  S
In431       O436   2.294       .  S
In431       O438   2.293       .  S
In431       O439   2.226       .  S
In431       O440   2.244       .  S
In431       O443   2.251       .  S
C432        O438   1.263       .  A
C432        O440   1.256       .  A
C432       C2189   1.488       .  S
O433        C441   1.262       .  A
O434        C441   1.259       .  A
C435        O442   1.256       .  A
C435        O436   1.263       .  A
C435       C2783   1.491       .  S
C437        O439   1.261       .  A
C437        O443   1.266       .  A
C437       C2167   1.475       .  S
C441       C3697   1.470       .  S
In444       O446   2.248       .  S
In444       O447   2.241       .  S
In444       O455   2.281       .  S
In444       O449   2.272       .  S
In444       O451   2.288       .  S
In444       O452   2.225       .  S
In444       O453   2.280       .  S
In444       O456   2.253       .  S
C445        O451   1.261       .  A
C445        O453   1.255       .  A
C445       C2245   1.496       .  S
O446        C454   1.259       .  A
O447        C454   1.259       .  A
C448        O455   1.260       .  A
C448        O449   1.258       .  A
C448       C3729   1.494       .  S
C450        O452   1.263       .  A
C450        O456   1.265       .  A
C450       C2179   1.472       .  S
C454       C2817   1.473       .  S
C457        C458   1.536       .  S
C457        C463   1.539       .  S
C457        C461   1.552       .  S
C457       C2101   1.548       .  S
C458        H465   1.086       .  S
C458        C459   1.367       .  D
C459        C460   1.549       .  S
C459       C2123   1.496       .  S
C460        C464   1.550       .  S
C460        C462   1.551       .  S
C460        H466   1.109       .  S
C461        H467   1.082       .  S
C461        C462   1.374       .  D
C462       C2145   1.507       .  S
C463        H468   1.086       .  S
C463        C464   1.370       .  D
C464       C3861   1.502       .  S
In469       O471   2.244       .  S
In469       O472   2.240       .  S
In469       O480   2.263       .  S
In469       O474   2.299       .  S
In469       O476   2.266       .  S
In469       O477   2.267       .  S
In469       O478   2.292       .  S
In469       O481   2.242       .  S
C470        O476   1.256       .  A
C470        O478   1.259       .  A
C470       C2057   1.492       .  S
O471        C479   1.260       .  A
O472        C479   1.262       .  A
C473        O480   1.254       .  A
C473        O474   1.256       .  A
C473       C3719   1.492       .  S
C475        O477   1.265       .  A
C475        O481   1.261       .  A
C475       C2079   1.481       .  S
C479       C2773   1.471       .  S
In482       O484   2.240       .  S
In482       O485   2.246       .  S
In482       O493   2.268       .  S
In482       O487   2.273       .  S
In482       O489   2.315       .  S
In482       O490   2.240       .  S
In482       O491   2.236       .  S
In482       O494   2.261       .  S
C483        O489   1.268       .  A
C483        O491   1.257       .  A
C483       C2157   1.497       .  S
O484        C492   1.262       .  A
O485        C492   1.262       .  A
C486        O493   1.258       .  A
C486        O487   1.260       .  A
C486       C2839   1.491       .  S
C488        O490   1.261       .  A
C488        O494   1.263       .  A
C488       C2091   1.478       .  S
C492       C3751   1.476       .  S
C495        C496   1.538       .  S
C495        C501   1.546       .  S
C495        C499   1.542       .  S
C495       C2927   1.551       .  S
C496        H503   1.085       .  S
C496        C497   1.365       .  D
C497        C498   1.548       .  S
C497       C2069   1.497       .  S
C498        C502   1.554       .  S
C498        C500   1.555       .  S
C498        H504   1.108       .  S
C499        H505   1.085       .  S
C499        C500   1.376       .  D
C500       C2035   1.513       .  S
C501        H506   1.084       .  S
C501        C502   1.373       .  D
C502       C2575   1.510       .  S
In507       O509   2.239       .  S
In507       O510   2.232       .  S
In507       O518   2.274       .  S
In507       O512   2.273       .  S
In507       O514   2.315       .  S
In507       O515   2.218       .  S
In507       O516   2.233       .  S
In507       O519   2.261       .  S
C508        O514   1.269       .  A
C508        O516   1.257       .  A
C508       C2047   1.497       .  S
O509        C517   1.262       .  A
O510        C517   1.260       .  A
C511        O518   1.259       .  A
C511        O512   1.259       .  A
C511       C1991   1.493       .  S
C513        O515   1.261       .  A
C513        O519   1.266       .  A
C513       C2013   1.475       .  S
C517       C2619   1.472       .  S
In520       O522   2.258       .  S
In520       O523   2.220       .  S
In520       O531   2.299       .  S
In520       O525   2.273       .  S
In520       O527   2.294       .  S
In520       O528   2.268       .  S
In520       O529   2.265       .  S
In520       O532   2.221       .  S
C521        O527   1.263       .  A
C521        O529   1.257       .  A
C521       C2135   1.494       .  S
O522        C530   1.260       .  A
O523        C530   1.259       .  A
C524        O531   1.260       .  A
C524        O525   1.255       .  A
C524       C2673   1.497       .  S
C526        O528   1.267       .  A
C526        O532   1.260       .  A
C526       C2025   1.478       .  S
C530       C1969   1.468       .  S
In533       O535   2.241       .  S
In533       O536   2.218       .  S
In533       O544   2.218       .  S
In533       O538   2.316       .  S
In533       O540   2.274       .  S
In533       O541   2.220       .  S
In533       O542   2.282       .  S
In533       O545   2.271       .  S
C534        O540   1.258       .  A
C534        O542   1.261       .  A
C534       C2255   1.496       .  S
O535        C543   1.262       .  A
O536        C543   1.261       .  A
C537        O544   1.255       .  A
C537        O538   1.270       .  A
C537       C1925   1.495       .  S
C539        O541   1.261       .  A
C539        O545   1.266       .  A
C539       C1947   1.481       .  S
C543       C1981   1.466       .  S
In546       O548   2.247       .  S
In546       O549   2.225       .  S
In546       O557   2.310       .  S
In546       O551   2.263       .  S
In546       O553   2.274       .  S
In546       O554   2.233       .  S
In546       O555   2.286       .  S
In546       O558   2.274       .  S
C547        O553   1.256       .  A
C547        O555   1.258       .  A
C547       C2003   1.494       .  S
O548        C556   1.263       .  A
O549        C556   1.262       .  A
C550        O557   1.264       .  A
C550        O551   1.255       .  A
C550       C1903   1.493       .  S
C552        O554   1.260       .  A
C552        O558   1.264       .  A
C552       C1959   1.481       .  S
C556       C2311   1.468       .  S
C559        C560   1.546       .  S
C559        C565   1.534       .  S
C559        C563   1.541       .  S
C559       C2223   1.549       .  S
C560        H567   1.081       .  S
C560        C561   1.371       .  D
C561        C562   1.555       .  S
C561       C1859   1.510       .  S
C562        C566   1.555       .  S
C562        C564   1.555       .  S
C562        H568   1.109       .  S
C563        H569   1.085       .  S
C563        C564   1.373       .  D
C564       C1881   1.506       .  S
C565        H570   1.086       .  S
C565        C566   1.367       .  D
C566       C1915   1.504       .  S
C571        C572   1.543       .  S
C571        C577   1.527       .  S
C571        C575   1.546       .  S
C571       C1815   1.545       .  S
C572        H579   1.085       .  S
C572        C573   1.374       .  D
C573        C574   1.551       .  S
C573       C2113   1.507       .  S
C574        C578   1.551       .  S
C574        C576   1.553       .  S
C574        H580   1.106       .  S
C575        H581   1.083       .  S
C575        C576   1.376       .  D
C576       C1937   1.509       .  S
C577        H582   1.086       .  S
C577        C578   1.366       .  D
C578       C1837   1.503       .  S
In583       O585   2.270       .  S
In583       O586   2.276       .  S
In583       O594   2.275       .  S
In583       O588   2.218       .  S
In583       O590   2.233       .  S
In583       O591   2.233       .  S
In583       O592   2.247       .  S
In583       O595   2.298       .  S
C584        O590   1.261       .  A
C584        O592   1.262       .  A
C584       C1749   1.471       .  S
O585        C593   1.257       .  A
O586        C593   1.257       .  A
C587        O594   1.263       .  A
C587        O588   1.260       .  A
C587       C1805   1.475       .  S
C589        O591   1.256       .  A
C589        O595   1.266       .  A
C589       C1849   1.484       .  S
C593       C1771   1.489       .  S
In596       O598   2.245       .  S
In596       O599   2.234       .  S
In596       O607   2.220       .  S
In596       O601   2.325       .  S
In596       O603   2.267       .  S
In596       O604   2.213       .  S
In596       O605   2.286       .  S
In596       O608   2.275       .  S
C597        O603   1.258       .  A
C597        O605   1.261       .  A
C597       C1739   1.495       .  S
O598        C606   1.262       .  A
O599        C606   1.262       .  A
C600        O607   1.255       .  A
C600        O601   1.269       .  A
C600       C1893   1.498       .  S
C602        O604   1.261       .  A
C602        O608   1.267       .  A
C602       C1793   1.481       .  S
C606       C1717   1.473       .  S
C609        C610   1.543       .  S
C609        C615   1.541       .  S
C609        C613   1.538       .  S
C609       C1639   1.546       .  S
C610        H617   1.080       .  S
C610        C611   1.373       .  D
C611        C612   1.553       .  S
C611       C3521   1.510       .  S
C612        C616   1.545       .  S
C612        C614   1.549       .  S
C612        H618   1.108       .  S
C613        H619   1.085       .  S
C613        C614   1.372       .  D
C614       C1695   1.501       .  S
C615        H620   1.086       .  S
C615        C616   1.367       .  D
C616       C1661   1.493       .  S
In621       O623   2.250       .  S
In621       O624   2.237       .  S
In621       O632   2.286       .  S
In621       O626   2.276       .  S
In621       O628   2.272       .  S
In621       O629   2.236       .  S
In621       O630   2.287       .  S
In621       O633   2.257       .  S
C622        O628   1.259       .  A
C622        O630   1.259       .  A
C622       C1595   1.496       .  S
O623        C631   1.264       .  A
O624        C631   1.263       .  A
C625        O632   1.260       .  A
C625        O626   1.258       .  A
C625       C3421   1.497       .  S
C627        O629   1.258       .  A
C627        O633   1.260       .  A
C627       C3191   1.473       .  S
C631       C1617   1.477       .  S
In634       O636   2.269       .  S
In634       O637   2.223       .  S
In634       O645   2.264       .  S
In634       O639   2.287       .  S
In634       O641   2.307       .  S
In634       O642   2.226       .  S
In634       O643   2.217       .  S
In634       O646   2.245       .  S
C635        O641   1.268       .  A
C635        O643   1.255       .  A
C635       C1683   1.489       .  S
O636        C644   1.266       .  A
O637        C644   1.260       .  A
C638        O645   1.258       .  A
C638        O639   1.261       .  A
C638       C3169   1.492       .  S
C640        O642   1.261       .  A
C640        O646   1.262       .  A
C640       C3389   1.471       .  S
C644       C1629   1.480       .  S
C647        C648   1.547       .  S
C647        C653   1.534       .  S
C647        C651   1.546       .  S
C647       C3103   1.546       .  S
C648        H655   1.085       .  S
C648        C649   1.373       .  D
C649        C650   1.552       .  S
C649       C1551   1.505       .  S
C650        C654   1.549       .  S
C650        C652   1.545       .  S
C650        H656   1.110       .  S
C651        H657   1.084       .  S
C651        C652   1.369       .  D
C652       C1573   1.494       .  S
C653        H658   1.086       .  S
C653        C654   1.368       .  D
C654       C1607   1.499       .  S
In659       O661   2.242       .  S
In659       O662   2.246       .  S
In659       O670   2.280       .  S
In659       O664   2.279       .  S
In659       O666   2.295       .  S
In659       O667   2.246       .  S
In659       O668   2.283       .  S
In659       O671   2.247       .  S
C660        O666   1.257       .  A
C660        O668   1.257       .  A
C660       C1507   1.498       .  S
O661        C669   1.259       .  A
O662        C669   1.262       .  A
C663        O670   1.257       .  A
C663        O664   1.258       .  A
C663       C1673   1.493       .  S
C665        O667   1.263       .  A
C665        O671   1.265       .  A
C665       C1529   1.478       .  S
C669       C1497   1.474       .  S
In672       O674   2.243       .  S
In672       O675   2.240       .  S
In672       O683   2.305       .  S
In672       O677   2.234       .  S
In672       O679   2.295       .  S
In672       O680   2.236       .  S
In672       O681   2.259       .  S
In672       O684   2.259       .  S
C673        O679   1.264       .  A
C673        O681   1.258       .  A
C673       C1463   1.495       .  S
O674        C682   1.261       .  A
O675        C682   1.260       .  A
C676        O683   1.266       .  A
C676        O677   1.256       .  A
C676       C1585   1.493       .  S
C678        O680   1.260       .  A
C678        O684   1.265       .  A
C678       C1541   1.477       .  S
C682       C1441   1.474       .  S
C685        C686   1.531       .  S
C685        C691   1.540       .  S
C685        C689   1.542       .  S
C685       C2553   1.544       .  S
C686        H693   1.087       .  S
C686        C687   1.363       .  D
C687        C688   1.545       .  S
C687       C1409   1.490       .  S
C688        C692   1.557       .  S
C688        C690   1.558       .  S
C688        H694   1.105       .  S
C689        H695   1.083       .  S
C689        C690   1.378       .  D
C690       C1419   1.516       .  S
C691        H696   1.080       .  S
C691        C692   1.371       .  D
C692       C1651   1.510       .  S
In697       O699   2.259       .  S
In697       O700   2.231       .  S
In697       O708   2.259       .  S
In697       O702   2.272       .  S
In697       O704   2.295       .  S
In697       O705   2.231       .  S
In697       O706   2.258       .  S
In697       O709   2.248       .  S
C698        O704   1.261       .  A
C698        O706   1.253       .  A
C698       C1365   1.490       .  S
O699        C707   1.261       .  A
O700        C707   1.258       .  A
C701        O708   1.257       .  A
C701        O702   1.261       .  A
C701       C2399   1.487       .  S
C703        O705   1.264       .  A
C703        O709   1.265       .  A
C703       C1375   1.476       .  S
C707       C1705   1.474       .  S
In710       O712   2.254       .  S
In710       O713   2.241       .  S
In710       O721   2.261       .  S
In710       O715   2.276       .  S
In710       O717   2.270       .  S
In710       O718   2.254       .  S
In710       O719   2.278       .  S
In710       O722   2.226       .  S
C711        O717   1.257       .  A
C711        O719   1.259       .  A
C711       C1397   1.490       .  S
O712        C720   1.261       .  A
O713        C720   1.259       .  A
C714        O721   1.258       .  A
C714        O715   1.259       .  A
C714       C1783   1.488       .  S
C716        O718   1.263       .  A
C716        O722   1.263       .  A
C716       C1387   1.476       .  S
C720       C2431   1.475       .  S
C723        C724   1.531       .  S
C723        C729   1.542       .  S
C723        C727   1.548       .  S
C723       C1871   1.549       .  S
C724        H731   1.087       .  S
C724        C725   1.363       .  D
C725        C726   1.547       .  S
C725       C1353   1.487       .  S
C726        C730   1.554       .  S
C726        C728   1.550       .  S
C726        H732   1.109       .  S
C727        H733   1.082       .  S
C727        C728   1.373       .  D
C728       C1343   1.504       .  S
C729        H734   1.085       .  S
C729        C730   1.376       .  D
C730       C1309   1.512       .  S
In735       O737   2.276       .  S
In735       O738   2.213       .  S
In735       O746   2.217       .  S
In735       O740   2.319       .  S
In735       O742   2.300       .  S
In735       O743   2.204       .  S
In735       O744   2.262       .  S
In735       O747   2.255       .  S
C736        O742   1.262       .  A
C736        O744   1.259       .  A
C736       C1475   1.499       .  S
O737        C745   1.266       .  A
O738        C745   1.260       .  A
C739        O746   1.255       .  A
C739        O740   1.271       .  A
C739       C1331   1.495       .  S
C741        O743   1.261       .  A
C741        O747   1.264       .  A
C741       C1265   1.468       .  S
C745       C1287   1.481       .  S
In748       O750   2.272       .  S
In748       O751   2.224       .  S
In748       O759   2.304       .  S
In748       O753   2.230       .  S
In748       O755   2.266       .  S
In748       O756   2.234       .  S
In748       O757   2.271       .  S
In748       O760   2.255       .  S
C749        O755   1.259       .  A
C749        O757   1.260       .  A
C749       C1243   1.490       .  S
O750        C758   1.264       .  A
O751        C758   1.260       .  A
C752        O759   1.268       .  A
C752        O753   1.258       .  A
C752       C1431   1.494       .  S
C754        O756   1.259       .  A
C754        O760   1.262       .  A
C754       C1485   1.474       .  S
C758       C1299   1.477       .  S
In761       O763   2.266       .  S
In761       O764   2.229       .  S
In761       O772   2.265       .  S
In761       O766   2.282       .  S
In761       O768   2.267       .  S
In761       O769   2.247       .  S
In761       O770   2.286       .  S
In761       O773   2.242       .  S
C762        O768   1.254       .  A
C762        O770   1.259       .  A
C762       C1255   1.489       .  S
O763        C771   1.259       .  A
O764        C771   1.257       .  A
C765        O772   1.258       .  A
C765        O766   1.262       .  A
C765       C1199   1.490       .  S
C767        O769   1.263       .  A
C767        O773   1.265       .  A
C767       C1221   1.477       .  S
C771       C1177   1.472       .  S
In774       O776   2.248       .  S
In774       O777   2.216       .  S
In774       O785   2.227       .  S
In774       O779   2.310       .  S
In774       O781   2.273       .  S
In774       O782   2.243       .  S
In774       O783   2.268       .  S
In774       O786   2.255       .  S
C775        O781   1.259       .  A
C775        O783   1.260       .  A
C775       C1133   1.491       .  S
O776        C784   1.262       .  A
O777        C784   1.261       .  A
C778        O785   1.256       .  A
C778        O779   1.268       .  A
C778       C1155   1.494       .  S
C780        O782   1.261       .  A
C780        O786   1.265       .  A
C780       C1233   1.481       .  S
C784       C1277   1.469       .  S
C787        C788   1.542       .  S
C787        C793   1.533       .  S
C787        C791   1.541       .  S
C787       C3267   1.548       .  S
C788        H795   1.079       .  S
C788        C789   1.372   1_554  D
C789        C790   1.558   1_556  S
C789       C1321   1.514       .  S
C790        C794   1.552       .  S
C790        C792   1.555       .  S
C790        H796   1.107   1_554  S
C791        H797   1.084       .  S
C791        C792   1.375       .  D
C792       C1167   1.511   1_554  S
C793        H798   1.086       .  S
C793        C794   1.367       .  D
C794       C1111   1.498       .  S
C799        C800   1.536   1_556  S
C799        C805   1.535       .  S
C799        C803   1.548   1_556  S
C799       C1067   1.546       .  S
C800        H807   1.085       .  S
C800        C801   1.372       .  D
C801        C802   1.559       .  S
C801       C3477   1.511       .  S
C802        C806   1.554   1_554  S
C802        C804   1.554       .  S
C802        H808   1.109       .  S
C803        H809   1.080       .  S
C803        C804   1.372       .  D
C804       C1101   1.509       .  S
C805        H810   1.086       .  S
C805        C806   1.366       .  D
C806       C1211   1.501       .  S
In811       O813   2.246       .  S
In811       O814   2.248       .  S
In811       O822   2.274       .  S
In811       O816   2.289       .  S
In811       O818   2.268       .  S
In811       O819   2.259       .  S
In811       O820   2.310       .  S
In811       O823   2.243       .  S
C812        O818   1.255       .  A
C812        O820   1.261       .  A
C812       C3367   1.499       .  S
O813        C821   1.259       .  A
O814        C821   1.260       .  A
C815        O822   1.257       .  A
C815        O816   1.259       .  A
C815       C1123   1.495       .  S
C817        O819   1.262       .  A
C817        O823   1.263       .  A
C817       C1045   1.479       .  S
C821       C3135   1.474       .  S
In824       O826   2.245       .  S
In824       O827   2.241       .  S
In824       O835   2.244       .  S
In824       O829   2.313       .  S
In824       O831   2.278       .  S
In824       O832   2.204       .  S
In824       O833   2.272       .  S
In824       O836   2.265       .  S
C825        O831   1.259       .  A
C825        O833   1.259       .  A
C825       C3213   1.494       .  S
O826        C834   1.258       .  A
O827        C834   1.260       .  A
C828        O835   1.255       .  A
C828        O829   1.267       .  A
C828       C1089   1.495       .  S
C830        O832   1.262       .  A
C830        O836   1.268       .  A
C830       C1057   1.474       .  S
C834       C3411   1.470       .  S
In837       O839   2.255       .  S
In837       O840   2.247       .  S
In837       O848   2.280       .  S
In837       O842   2.286       .  S
In837       O844   2.310       .  S
In837       O845   2.225       .  S
In837       O846   2.264       .  S
In837       O849   2.257       .  S
C838        O844   1.262       .  A
C838        O846   1.255       .  A
C838       C1519   1.497       .  S
O839        C847   1.265       .  A
O840        C847   1.262       .  A
C841        O848   1.256       .  A
C841        O842   1.260       .  A
C841       C1013   1.495       .  S
C843        O845   1.261       .  A
C843        O849   1.261       .  A
C843       C1189   1.473       .  S
C847       C1035   1.481       .  S
In850       O852   2.248       .  S
In850       O853   2.241       .  S
In850       O861   2.243       .  S
In850       O855   2.307       .  S
In850       O857   2.298       .  S
In850       O858   2.250       .  S
In850       O859   2.253       .  S
In850       O862   2.244       .  S
C851        O857   1.262       .  A
C851        O859   1.254       .  A
C851       C1145   1.488       .  S
O852        C860   1.265       .  A
O853        C860   1.263       .  A
C854        O861   1.255       .  A
C854        O855   1.264       .  A
C854        C991   1.492       .  S
C856        O858   1.259       .  A
C856        O862   1.259       .  A
C856       C1453   1.474       .  S
C860       C1023   1.477       .  S
C863        C864   1.535       .  S
C863        C869   1.536   1_565  S
C863        C867   1.547   1_565  S
C863       C1079   1.545       .  S
C864        H871   1.087       .  S
C864        C865   1.366       .  D
C865        C866   1.549   1_565  S
C865       C1001   1.496       .  S
C866        C870   1.558       .  S
C866        C868   1.554       .  S
C866        H872   1.110       .  S
C867        H873   1.081       .  S
C867        C868   1.371       .  D
C868        C957   1.503       .  S
C869        H874   1.086       .  S
C869        C870   1.371       .  D
C870       C2509   1.509       .  S
C875        C876   1.531       .  S
C875        C881   1.539       .  S
C875        C879   1.548       .  S
C875       C1563   1.550       .  S
C876        H883   1.086       .  S
C876        C877   1.371       .  D
C877        C878   1.555       .  S
C877        C979   1.505       .  S
C878        C882   1.557   1_565  S
C878        C880   1.548       .  S
C878        H884   1.109   1_565  S
C879        H885   1.082       .  S
C879        C880   1.369       .  D
C880        C947   1.502   1_565  S
C881        H886   1.085       .  S
C881        C882   1.374   1_565  D
C882       C1827   1.509       .  S
In887       O889   2.262       .  S
In887       O890   2.221       .  S
In887       O898   2.326       .  S
In887       O892   2.215       .  S
In887       O894   2.243       .  S
In887       O895   2.230       .  S
In887       O896   2.301       .  S
In887       O899   2.248       .  S
C888        O894   1.257       .  A
C888        O896   1.265       .  A
C888       C1727   1.494       .  S
O889        C897   1.265       .  A
O890        C897   1.261       .  A
C891        O898   1.269       .  A
C891        O892   1.254       .  A
C891        C969   1.496       .  S
C893        O895   1.262       .  A
C893        O899   1.264       .  A
C893       C2377   1.476       .  S
C897        C925   1.472       .  S
In900       O902   2.254       .  S
In900       O903   2.227       .  S
In900       O911   2.231       .  S
In900       O905   2.320       .  S
In900       O907   2.260       .  S
In900       O908   2.228       .  S
In900       O909   2.293       .  S
In900       O912   2.241       .  S
C901        O907   1.258       .  A
C901        O909   1.265       .  A
C901       C2421   1.495       .  S
O902        C910   1.265       .  A
O903        C910   1.261       .  A
C904        O911   1.254       .  A
C904        O905   1.269       .  A
C904        C935   1.498       .  S
C906        O908   1.261       .  A
C906        O912   1.262       .  A
C906       C1761   1.472       .  S
C910        C913   1.470       .  S
C913        C914   1.397       .  A
C913        C918   1.400       .  A
C914        C915   1.397       .  A
C914        H927   1.084       .  S
C915        C916   1.416       .  A
C915        H928   1.077       .  S
C916        C922   1.428       .  A
C916        C917   1.421       .  A
C917        C919   1.400       .  A
C917        C918   1.405       .  A
C918        H929   1.085       .  S
C919        C920   1.392       .  A
C919        H930   1.084       .  S
C920        C921   1.400       .  A
C920        H931   1.084       .  S
C921        C922   1.424       .  A
C921        C926   1.408       .  A
C922        C923   1.413       .  A
C923        C924   1.394       .  A
C923        H932   1.077       .  S
C924        C925   1.398       .  A
C924        H933   1.084       .  S
C925        C926   1.400       .  A
C926        H934   1.085       .  S
C935        C936   1.403       .  A
C935        C940   1.407       .  A
C936        C937   1.410       .  A
C936        H949   1.083       .  S
C937        C938   1.421       .  A
C937        H950   1.078       .  S
C938        C944   1.441       .  A
C938        C939   1.420       .  A
C939        C941   1.401       .  A
C939        C940   1.407       .  A
C940        H951   1.084       .  S
C941        C942   1.391       .  A
C941        H952   1.084       .  S
C942        C943   1.399       .  A
C942        H953   1.084       .  S
C943        C944   1.426       .  A
C943        C948   1.413       .  A
C944        C945   1.414       .  A
C945        C946   1.404       .  A
C945        H954   1.078       .  S
C946        C947   1.406       .  A
C946        H955   1.083   1_545  S
C947        C948   1.402       .  A
C948        H956   1.084       .  S
C957        C958   1.399       .  A
C957        C962   1.412       .  A
C958        C959   1.400       .  A
C958        H971   1.079       .  S
C959        C960   1.416       .  A
C959        H972   1.077       .  S
C960        C966   1.435       .  A
C960        C961   1.419       .  A
C961        C963   1.404       .  A
C961        C962   1.415       .  A
C962        H973   1.084       .  S
C963        C964   1.399       .  A
C963        H974   1.084       .  S
C964        C965   1.402       .  A
C964        H975   1.084       .  S
C965        C966   1.425       .  A
C965        C970   1.421       .  A
C966        C967   1.410       .  A
C967        C968   1.393       .  A
C967        H976   1.077       .  S
C968        C969   1.405       .  A
C968        H977   1.083       .  S
C969        C970   1.408       .  A
C970        H978   1.084       .  S
C979        C980   1.404       .  A
C979        C984   1.405       .  A
C980        C981   1.409       .  A
C980        H993   1.083       .  S
C981        C982   1.418       .  A
C981        H994   1.078       .  S
C982        C988   1.442       .  A
C982        C983   1.423       .  A
C983        C985   1.399       .  A
C983        C984   1.408       .  A
C984        H995   1.084       .  S
C985        C986   1.389       .  A
C985        H996   1.084       .  S
C986        C987   1.399       .  A
C986        H997   1.084       .  S
C987        C988   1.423       .  A
C987        C992   1.407       .  A
C988        C989   1.419       .  A
C989        C990   1.409       .  A
C989        H998   1.078       .  S
C990        C991   1.403       .  A
C990        H999   1.083       .  S
C991        C992   1.403       .  A
C992       H1000   1.085       .  S
C1001      C1002   1.402       .  A
C1001      C1006   1.404       .  A
C1002      C1003   1.399       .  A
C1002      H1015   1.084       .  S
C1003      C1004   1.415       .  A
C1003      H1016   1.077       .  S
C1004      C1010   1.439       .  A
C1004      C1005   1.425       .  A
C1005      C1007   1.401       .  A
C1005      C1006   1.417       .  A
C1006      H1017   1.084   1_565  S
C1007      C1008   1.395       .  A
C1007      H1018   1.084       .  S
C1008      C1009   1.402       .  A
C1008      H1019   1.084       .  S
C1009      C1010   1.422       .  A
C1009      C1014   1.414       .  A
C1010      C1011   1.417       .  A
C1011      C1012   1.403       .  A
C1011      H1020   1.077       .  S
C1012      C1013   1.402       .  A
C1012      H1021   1.083       .  S
C1013      C1014   1.407       .  A
C1014      H1022   1.084       .  S
C1023      C1024   1.399       .  A
C1023      C1028   1.401       .  A
C1024      C1025   1.398       .  A
C1024      H1037   1.083       .  S
C1025      C1026   1.416       .  A
C1025      H1038   1.077       .  S
C1026      C1032   1.432       .  A
C1026      C1027   1.423       .  A
C1027      C1029   1.400       .  A
C1027      C1028   1.406       .  A
C1028      H1039   1.085       .  S
C1029      C1030   1.390       .  A
C1029      H1040   1.084       .  S
C1030      C1031   1.400       .  A
C1030      H1041   1.084       .  S
C1031      C1032   1.423       .  A
C1031      C1036   1.406       .  A
C1032      C1033   1.415       .  A
C1033      C1034   1.398       .  A
C1033      H1042   1.077       .  S
C1034      C1035   1.400       .  A
C1034      H1043   1.083       .  S
C1035      C1036   1.403       .  A
C1036      H1044   1.084       .  S
C1045      C1046   1.397       .  A
C1045      C1050   1.405       .  A
C1046      C1047   1.392       .  A
C1046      H1059   1.083       .  S
C1047      C1048   1.415       .  A
C1047      H1060   1.076       .  S
C1048      C1054   1.428       .  A
C1048      C1049   1.421       .  A
C1049      C1051   1.402       .  A
C1049      C1050   1.410       .  A
C1050      H1061   1.084       .  S
C1051      C1052   1.394       .  A
C1051      H1062   1.084       .  S
C1052      C1053   1.401       .  A
C1052      H1063   1.084       .  S
C1053      C1054   1.424       .  A
C1053      C1058   1.411       .  A
C1054      C1055   1.412       .  A
C1055      C1056   1.388       .  A
C1055      H1064   1.076       .  S
C1056      C1057   1.398       .  A
C1056      H1065   1.084       .  S
C1057      C1058   1.403       .  A
C1058      H1066   1.084       .  S
C1067      C1068   1.407       .  A
C1067      C1072   1.411       .  A
C1068      C1069   1.402       .  A
C1068      H1081   1.083       .  S
C1069      C1070   1.414       .  A
C1069      H1082   1.078       .  S
C1070      C1076   1.439       .  A
C1070      C1071   1.422       .  A
C1071      C1073   1.401       .  A
C1071      C1072   1.413       .  A
C1072      H1083   1.078       .  S
C1073      C1074   1.392       .  A
C1073      H1084   1.084       .  S
C1074      C1075   1.401       .  A
C1074      H1085   1.084       .  S
C1075      C1076   1.422       .  A
C1075      C1080   1.413       .  A
C1076      C1077   1.414       .  A
C1077      C1078   1.402       .  A
C1077      H1086   1.078       .  S
C1078      C1079   1.408       .  A
C1078      H1087   1.083       .  S
C1079      C1080   1.411       .  A
C1080      H1088   1.078       .  S
C1089      C1090   1.404       .  A
C1089      C1094   1.405       .  A
C1090      C1091   1.400       .  A
C1090      H1103   1.083       .  S
C1091      C1092   1.414       .  A
C1091      H1104   1.077       .  S
C1092      C1098   1.440       .  A
C1092      C1093   1.425       .  A
C1093      C1095   1.401       .  A
C1093      C1094   1.417       .  A
C1094      H1105   1.084       .  S
C1095      C1096   1.395       .  A
C1095      H1106   1.084       .  S
C1096      C1097   1.402       .  A
C1096      H1107   1.084       .  S
C1097      C1098   1.421       .  A
C1097      C1102   1.414       .  A
C1098      C1099   1.417       .  A
C1099      C1100   1.404       .  A
C1099      H1108   1.077       .  S
C1100      C1101   1.402       .  A
C1100      H1109   1.077       .  S
C1101      C1102   1.410       .  A
C1102      H1110   1.083       .  S
C1111      C1112   1.402       .  A
C1111      C1116   1.404       .  A
C1112      C1113   1.406       .  A
C1112      H1125   1.083       .  S
C1113      C1114   1.418       .  A
C1113      H1126   1.078       .  S
C1114      C1120   1.441       .  A
C1114      C1115   1.423       .  A
C1115      C1117   1.400       .  A
C1115      C1116   1.410       .  A
C1116      H1127   1.085       .  S
C1117      C1118   1.391       .  A
C1117      H1128   1.084       .  S
C1118      C1119   1.400       .  A
C1118      H1129   1.084       .  S
C1119      C1120   1.424       .  A
C1119      C1124   1.411       .  A
C1120      C1121   1.417       .  A
C1121      C1122   1.406       .  A
C1121      H1130   1.078       .  S
C1122      C1123   1.404       .  A
C1122      H1131   1.083       .  S
C1123      C1124   1.404       .  A
C1124      H1132   1.084       .  S
C1133      C1134   1.404       .  A
C1133      C1138   1.403       .  A
C1134      C1135   1.404       .  A
C1134      H1147   1.083       .  S
C1135      C1136   1.416       .  A
C1135      H1148   1.078       .  S
C1136      C1142   1.439       .  A
C1136      C1137   1.424       .  A
C1137      C1139   1.399       .  A
C1137      C1138   1.409       .  A
C1138      H1149   1.084       .  S
C1139      C1140   1.390       .  A
C1139      H1150   1.084       .  S
C1140      C1141   1.400       .  A
C1140      H1151   1.084       .  S
C1141      C1142   1.423       .  A
C1141      C1146   1.408       .  A
C1142      C1143   1.418       .  A
C1143      C1144   1.406       .  A
C1143      H1152   1.078       .  S
C1144      C1145   1.402       .  A
C1144      H1153   1.083       .  S
C1145      C1146   1.403       .  A
C1146      H1154   1.085       .  S
C1155      C1156   1.403       .  A
C1155      C1160   1.405       .  A
C1156      C1157   1.410       .  A
C1156      H1169   1.083       .  S
C1157      C1158   1.421       .  A
C1157      H1170   1.078       .  S
C1158      C1164   1.440       .  A
C1158      C1159   1.421       .  A
C1159      C1161   1.400       .  A
C1159      C1160   1.405       .  A
C1160      H1171   1.084       .  S
C1161      C1162   1.389       .  A
C1161      H1172   1.084       .  S
C1162      C1163   1.399       .  A
C1162      H1173   1.084       .  S
C1163      C1164   1.424       .  A
C1163      C1168   1.411       .  A
C1164      C1165   1.413       .  A
C1165      C1166   1.404       .  A
C1165      H1174   1.078       .  S
C1166      C1167   1.410       .  A
C1166      H1175   1.081   1_556  S
C1167      C1168   1.404       .  A
C1168      H1176   1.082       .  S
C1177      C1178   1.400       .  A
C1177      C1182   1.396       .  A
C1178      C1179   1.401       .  A
C1178      H1191   1.083       .  S
C1179      C1180   1.417       .  A
C1179      H1192   1.078       .  S
C1180      C1186   1.430       .  A
C1180      C1181   1.422       .  A
C1181      C1183   1.397       .  A
C1181      C1182   1.396       .  A
C1182      H1193   1.085       .  S
C1183      C1184   1.383       .  A
C1183      H1194   1.084       .  S
C1184      C1185   1.397       .  A
C1184      H1195   1.084       .  S
C1185      C1186   1.423       .  A
C1185      C1190   1.397       .  A
C1186      C1187   1.417       .  A
C1187      C1188   1.400       .  A
C1187      H1196   1.078       .  S
C1188      C1189   1.401       .  A
C1188      H1197   1.083       .  S
C1189      C1190   1.397       .  A
C1190      H1198   1.085       .  S
C1199      C1200   1.403       .  A
C1199      C1204   1.404       .  A
C1200      C1201   1.403       .  A
C1200      H1213   1.083       .  S
C1201      C1202   1.416       .  A
C1201      H1214   1.078       .  S
C1202      C1208   1.439       .  A
C1202      C1203   1.424       .  A
C1203      C1205   1.400       .  A
C1203      C1204   1.412       .  A
C1204      H1215   1.084       .  S
C1205      C1206   1.392       .  A
C1205      H1216   1.084       .  S
C1206      C1207   1.401       .  A
C1206      H1217   1.084       .  S
C1207      C1208   1.422       .  A
C1207      C1212   1.411       .  A
C1208      C1209   1.417       .  A
C1209      C1210   1.404       .  A
C1209      H1218   1.078       .  S
C1210      C1211   1.400       .  A
C1210      H1219   1.077       .  S
C1211      C1212   1.407       .  A
C1212      H1220   1.084       .  S
C1221      C1222   1.398       .  A
C1221      C1226   1.403       .  A
C1222      C1223   1.395       .  A
C1222      H1235   1.083       .  S
C1223      C1224   1.415       .  A
C1223      H1236   1.076       .  S
C1224      C1230   1.431       .  A
C1224      C1225   1.423       .  A
C1225      C1227   1.400       .  A
C1225      C1226   1.408       .  A
C1226      H1237   1.085       .  S
C1227      C1228   1.392       .  A
C1227      H1238   1.084       .  S
C1228      C1229   1.401       .  A
C1228      H1239   1.084       .  S
C1229      C1230   1.422       .  A
C1229      C1234   1.408       .  A
C1230      C1231   1.416       .  A
C1231      C1232   1.396       .  A
C1231      H1240   1.076       .  S
C1232      C1233   1.398       .  A
C1232      H1241   1.083       .  S
C1233      C1234   1.404       .  A
C1234      H1242   1.084       .  S
C1243      C1244   1.402       .  A
C1243      C1248   1.404       .  A
C1244      C1245   1.403       .  A
C1244      H1257   1.083       .  S
C1245      C1246   1.417       .  A
C1245      H1258   1.078       .  S
C1246      C1252   1.438       .  A
C1246      C1247   1.423       .  A
C1247      C1249   1.400       .  A
C1247      C1248   1.410       .  A
C1248      H1259   1.084       .  S
C1249      C1250   1.392       .  A
C1249      H1260   1.084       .  S
C1250      C1251   1.400       .  A
C1250      H1261   1.084       .  S
C1251      C1252   1.423       .  A
C1251      C1256   1.410       .  A
C1252      C1253   1.417       .  A
C1253      C1254   1.403       .  A
C1253      H1262   1.078       .  S
C1254      C1255   1.402       .  A
C1254      H1263   1.083       .  S
C1255      C1256   1.404       .  A
C1256      H1264   1.084       .  S
C1265      C1266   1.396       .  A
C1265      C1270   1.401       .  A
C1266      C1267   1.388       .  A
C1266      H1279   1.084       .  S
C1267      C1268   1.413       .  A
C1267      H1280   1.075       .  S
C1268      C1274   1.424       .  A
C1268      C1269   1.423       .  A
C1269      C1271   1.400       .  A
C1269      C1270   1.407       .  A
C1270      H1281   1.084       .  S
C1271      C1272   1.392       .  A
C1271      H1282   1.084       .  S
C1272      C1273   1.400       .  A
C1272      H1283   1.084       .  S
C1273      C1274   1.422       .  A
C1273      C1278   1.406       .  A
C1274      C1275   1.413       .  A
C1275      C1276   1.389       .  A
C1275      H1284   1.075       .  S
C1276      C1277   1.397       .  A
C1276      H1285   1.084       .  S
C1277      C1278   1.401       .  A
C1278      H1286   1.084       .  S
C1287      C1288   1.400       .  A
C1287      C1292   1.404       .  A
C1288      C1289   1.390       .  A
C1288      H1301   1.083       .  S
C1289      C1290   1.412       .  A
C1289      H1302   1.076       .  S
C1290      C1296   1.429       .  A
C1290      C1291   1.423       .  A
C1291      C1293   1.401       .  A
C1291      C1292   1.413       .  A
C1292      H1303   1.084       .  S
C1293      C1294   1.395       .  A
C1293      H1304   1.084       .  S
C1294      C1295   1.402       .  A
C1294      H1305   1.084       .  S
C1295      C1296   1.422       .  A
C1295      C1300   1.411       .  A
C1296      C1297   1.414       .  A
C1297      C1298   1.391       .  A
C1297      H1306   1.076       .  S
C1298      C1299   1.398       .  A
C1298      H1307   1.084       .  S
C1299      C1300   1.403       .  A
C1300      H1308   1.084       .  S
C1309      C1310   1.405       .  A
C1309      C1314   1.411       .  A
C1310      C1311   1.399       .  A
C1310      H1323   1.082       .  S
C1311      C1312   1.414       .  A
C1311      H1324   1.077       .  S
C1312      C1318   1.441       .  A
C1312      C1313   1.423       .  A
C1313      C1315   1.404       .  A
C1313      C1314   1.423       .  A
C1314      H1325   1.084       .  S
C1315      C1316   1.400       .  A
C1315      H1326   1.084       .  S
C1316      C1317   1.403       .  A
C1316      H1327   1.084       .  S
C1317      C1318   1.424       .  A
C1317      C1322   1.424       .  A
C1318      C1319   1.413       .  A
C1319      C1320   1.398       .  A
C1319      H1328   1.077       .  S
C1320      C1321   1.407       .  A
C1320      H1329   1.082       .  S
C1321      C1322   1.409       .  A
C1322      H1330   1.084       .  S
C1331      C1332   1.406       .  A
C1331      C1336   1.404       .  A
C1332      C1333   1.396       .  A
C1332      H1345   1.083       .  S
C1333      C1334   1.411       .  A
C1333      H1346   1.077       .  S
C1334      C1340   1.438       .  A
C1334      C1335   1.426       .  A
C1335      C1337   1.400       .  A
C1335      C1336   1.418       .  A
C1336      H1347   1.084       .  S
C1337      C1338   1.395       .  A
C1337      H1348   1.084       .  S
C1338      C1339   1.402       .  A
C1338      H1349   1.084       .  S
C1339      C1340   1.420       .  A
C1339      C1344   1.412       .  A
C1340      C1341   1.418       .  A
C1341      C1342   1.402       .  A
C1341      H1350   1.077       .  S
C1342      C1343   1.402       .  A
C1342      H1351   1.082       .  S
C1343      C1344   1.409       .  A
C1344      H1352   1.083       .  S
C1353      C1354   1.399       .  A
C1353      C1358   1.401       .  A
C1354      C1355   1.402       .  A
C1354      H1367   1.083       .  S
C1355      C1356   1.417       .  A
C1355      H1368   1.078       .  S
C1356      C1362   1.438       .  A
C1356      C1357   1.425       .  A
C1357      C1359   1.400       .  A
C1357      C1358   1.411       .  A
C1358      H1369   1.085       .  S
C1359      C1360   1.392       .  A
C1359      H1370   1.084       .  S
C1360      C1361   1.401       .  A
C1360      H1371   1.084       .  S
C1361      C1362   1.422       .  A
C1361      C1366   1.409       .  A
C1362      C1363   1.418       .  A
C1363      C1364   1.404       .  A
C1363      H1372   1.078       .  S
C1364      C1365   1.401       .  A
C1364      H1373   1.083       .  S
C1365      C1366   1.405       .  A
C1366      H1374   1.085       .  S
C1375      C1376   1.398       .  A
C1375      C1380   1.402       .  A
C1376      C1377   1.393       .  A
C1376      H1389   1.083       .  S
C1377      C1378   1.414       .  A
C1377      H1390   1.076       .  S
C1378      C1384   1.428       .  A
C1378      C1379   1.422       .  A
C1379      C1381   1.400       .  A
C1379      C1380   1.407       .  A
C1380      H1391   1.084       .  S
C1381      C1382   1.392       .  A
C1381      H1392   1.084       .  S
C1382      C1383   1.400       .  A
C1382      H1393   1.084       .  S
C1383      C1384   1.423       .  A
C1383      C1388   1.408       .  A
C1384      C1385   1.413       .  A
C1385      C1386   1.392       .  A
C1385      H1394   1.076       .  S
C1386      C1387   1.398       .  A
C1386      H1395   1.083       .  S
C1387      C1388   1.403       .  A
C1388      H1396   1.084       .  S
C1397      C1398   1.403       .  A
C1397      C1402   1.402       .  A
C1398      C1399   1.403       .  A
C1398      H1411   1.083       .  S
C1399      C1400   1.416       .  A
C1399      H1412   1.078       .  S
C1400      C1406   1.438       .  A
C1400      C1401   1.424       .  A
C1401      C1403   1.399       .  A
C1401      C1402   1.410       .  A
C1402      H1413   1.084       .  S
C1403      C1404   1.390       .  A
C1403      H1414   1.084       .  S
C1404      C1405   1.400       .  A
C1404      H1415   1.084       .  S
C1405      C1406   1.423       .  A
C1405      C1410   1.407       .  A
C1406      C1407   1.419       .  A
C1407      C1408   1.405       .  A
C1407      H1416   1.078       .  S
C1408      C1409   1.400       .  A
C1408      H1417   1.084       .  S
C1409      C1410   1.402       .  A
C1410      H1418   1.085       .  S
C1419      C1420   1.412       .  A
C1419      C1424   1.406       .  A
C1420      C1421   1.405       .  A
C1420      H1433   1.080       .  S
C1421      C1422   1.413       .  A
C1421      H1434   1.078       .  S
C1422      C1428   1.441       .  A
C1422      C1423   1.423       .  A
C1423      C1425   1.399       .  A
C1423      C1424   1.410       .  A
C1424      H1435   1.079       .  S
C1425      C1426   1.388       .  A
C1425      H1436   1.084       .  S
C1426      C1427   1.399       .  A
C1426      H1437   1.084       .  S
C1427      C1428   1.421       .  A
C1427      C1432   1.405       .  A
C1428      C1429   1.421       .  A
C1429      C1430   1.410       .  A
C1429      H1438   1.078       .  S
C1430      C1431   1.403       .  A
C1430      H1439   1.083       .  S
C1431      C1432   1.404       .  A
C1432      H1440   1.084       .  S
C1441      C1442   1.400       .  A
C1441      C1446   1.399       .  A
C1442      C1443   1.396       .  A
C1442      H1455   1.083       .  S
C1443      C1444   1.415       .  A
C1443      H1456   1.077       .  S
C1444      C1450   1.429       .  A
C1444      C1445   1.423       .  A
C1445      C1447   1.398       .  A
C1445      C1446   1.402       .  A
C1446      H1457   1.085       .  S
C1447      C1448   1.388       .  A
C1447      H1458   1.084       .  S
C1448      C1449   1.399       .  A
C1448      H1459   1.084       .  S
C1449      C1450   1.422       .  A
C1449      C1454   1.402       .  A
C1450      C1451   1.415       .  A
C1451      C1452   1.396       .  A
C1451      H1460   1.077       .  S
C1452      C1453   1.399       .  A
C1452      H1461   1.083       .  S
C1453      C1454   1.399       .  A
C1454      H1462   1.085       .  S
C1463      C1464   1.404       .  A
C1463      C1468   1.403       .  A
C1464      C1465   1.409       .  A
C1464      H1477   1.083       .  S
C1465      C1466   1.418       .  A
C1465      H1478   1.078       .  S
C1466      C1472   1.443       .  A
C1466      C1467   1.424       .  A
C1467      C1469   1.399       .  A
C1467      C1468   1.410       .  A
C1468      H1479   1.085       .  S
C1469      C1470   1.390       .  A
C1469      H1480   1.084       .  S
C1470      C1471   1.399       .  A
C1470      H1481   1.084       .  S
C1471      C1472   1.423       .  A
C1471      C1476   1.410       .  A
C1472      C1473   1.419       .  A
C1473      C1474   1.410       .  A
C1473      H1482   1.079       .  S
C1474      C1475   1.406       .  A
C1474      H1483   1.083       .  S
C1475      C1476   1.404       .  A
C1476      H1484   1.084       .  S
C1485      C1486   1.399       .  A
C1485      C1490   1.400       .  A
C1486      C1487   1.394       .  A
C1486      H1499   1.083       .  S
C1487      C1488   1.414       .  A
C1487      H1500   1.077       .  S
C1488      C1494   1.428       .  A
C1488      C1489   1.423       .  A
C1489      C1491   1.399       .  A
C1489      C1490   1.404       .  A
C1490      H1501   1.084       .  S
C1491      C1492   1.390       .  A
C1491      H1502   1.084       .  S
C1492      C1493   1.400       .  A
C1492      H1503   1.084       .  S
C1493      C1494   1.422       .  A
C1493      C1498   1.404       .  A
C1494      C1495   1.415       .  A
C1495      C1496   1.394       .  A
C1495      H1504   1.077       .  S
C1496      C1497   1.398       .  A
C1496      H1505   1.083       .  S
C1497      C1498   1.401       .  A
C1498      H1506   1.085       .  S
C1507      C1508   1.403       .  A
C1507      C1512   1.407       .  A
C1508      C1509   1.403       .  A
C1508      H1521   1.083       .  S
C1509      C1510   1.416       .  A
C1509      H1522   1.077       .  S
C1510      C1516   1.441       .  A
C1510      C1511   1.423       .  A
C1511      C1513   1.402       .  A
C1511      C1512   1.416       .  A
C1512      H1523   1.084       .  S
C1513      C1514   1.396       .  A
C1513      H1524   1.084       .  S
C1514      C1515   1.402       .  A
C1514      H1525   1.084       .  S
C1515      C1516   1.424       .  A
C1515      C1520   1.418       .  A
C1516      C1517   1.415       .  A
C1517      C1518   1.402       .  A
C1517      H1526   1.077       .  S
C1518      C1519   1.404       .  A
C1518      H1527   1.083       .  S
C1519      C1520   1.407       .  A
C1520      H1528   1.084       .  S
C1529      C1530   1.399       .  A
C1529      C1534   1.401       .  A
C1530      C1531   1.398       .  A
C1530      H1543   1.083       .  S
C1531      C1532   1.416       .  A
C1531      H1544   1.078       .  S
C1532      C1538   1.431       .  A
C1532      C1533   1.423       .  A
C1533      C1535   1.399       .  A
C1533      C1534   1.406       .  A
C1534      H1545   1.085       .  S
C1535      C1536   1.390       .  A
C1535      H1546   1.084       .  S
C1536      C1537   1.399       .  A
C1536      H1547   1.084       .  S
C1537      C1538   1.423       .  A
C1537      C1542   1.406       .  A
C1538      C1539   1.415       .  A
C1539      C1540   1.398       .  A
C1539      H1548   1.078       .  S
C1540      C1541   1.401       .  A
C1540      H1549   1.084       .  S
C1541      C1542   1.399       .  A
C1542      H1550   1.085       .  S
C1551      C1552   1.401       .  A
C1551      C1556   1.409       .  A
C1552      C1553   1.404       .  A
C1552      H1565   1.083       .  S
C1553      C1554   1.418       .  A
C1553      H1566   1.077       .  S
C1554      C1560   1.441       .  A
C1554      C1555   1.422       .  A
C1555      C1557   1.402       .  A
C1555      C1556   1.415       .  A
C1556      H1567   1.084       .  S
C1557      C1558   1.396       .  A
C1557      H1568   1.084       .  S
C1558      C1559   1.402       .  A
C1558      H1569   1.084       .  S
C1559      C1560   1.422       .  A
C1559      C1564   1.417       .  A
C1560      C1561   1.412       .  A
C1561      C1562   1.401       .  A
C1561      H1570   1.077       .  S
C1562      C1563   1.410       .  A
C1562      H1571   1.078       .  S
C1563      C1564   1.412       .  A
C1564      H1572   1.084       .  S
C1573      C1574   1.403       .  A
C1573      C1578   1.400       .  A
C1574      C1575   1.403       .  A
C1574      H1587   1.083       .  S
C1575      C1576   1.416       .  A
C1575      H1588   1.078       .  S
C1576      C1582   1.439       .  A
C1576      C1577   1.425       .  A
C1577      C1579   1.398       .  A
C1577      C1578   1.409       .  A
C1578      H1589   1.085       .  S
C1579      C1580   1.389       .  A
C1579      H1590   1.084       .  S
C1580      C1581   1.400       .  A
C1580      H1591   1.084       .  S
C1581      C1582   1.421       .  A
C1581      C1586   1.406       .  A
C1582      C1583   1.420       .  A
C1583      C1584   1.408       .  A
C1583      H1592   1.078       .  S
C1584      C1585   1.402       .  A
C1584      H1593   1.083       .  S
C1585      C1586   1.405       .  A
C1586      H1594   1.084       .  S
C1595      C1596   1.402       .  A
C1595      C1600   1.408       .  A
C1596      C1597   1.401       .  A
C1596      H1609   1.083       .  S
C1597      C1598   1.416       .  A
C1597      H1610   1.077       .  S
C1598      C1604   1.439       .  A
C1598      C1599   1.423       .  A
C1599      C1601   1.402       .  A
C1599      C1600   1.416       .  A
C1600      H1611   1.084       .  S
C1601      C1602   1.396       .  A
C1601      H1612   1.084       .  S
C1602      C1603   1.402       .  A
C1602      H1613   1.084       .  S
C1603      C1604   1.424       .  A
C1603      C1608   1.417       .  A
C1604      C1605   1.416       .  A
C1605      C1606   1.401       .  A
C1605      H1614   1.077       .  S
C1606      C1607   1.402       .  A
C1606      H1615   1.083       .  S
C1607      C1608   1.405       .  A
C1608      H1616   1.084       .  S
C1617      C1618   1.399       .  A
C1617      C1622   1.401       .  A
C1618      C1619   1.395       .  A
C1618      H1631   1.083       .  S
C1619      C1620   1.415       .  A
C1619      H1632   1.077       .  S
C1620      C1626   1.430       .  A
C1620      C1621   1.422       .  A
C1621      C1623   1.400       .  A
C1621      C1622   1.407       .  A
C1622      H1633   1.084       .  S
C1623      C1624   1.392       .  A
C1623      H1634   1.084       .  S
C1624      C1625   1.400       .  A
C1624      H1635   1.084       .  S
C1625      C1626   1.424       .  A
C1625      C1630   1.409       .  A
C1626      C1627   1.413       .  A
C1627      C1628   1.393       .  A
C1627      H1636   1.077       .  S
C1628      C1629   1.401       .  A
C1628      H1637   1.083       .  S
C1629      C1630   1.402       .  A
C1630      H1638   1.084       .  S
C1639      C1640   1.409       .  A
C1639      C1644   1.410       .  A
C1640      C1641   1.402       .  A
C1640      H1653   1.079       .  S
C1641      C1642   1.415       .  A
C1641      H1654   1.078       .  S
C1642      C1648   1.439       .  A
C1642      C1643   1.420       .  A
C1643      C1645   1.401       .  A
C1643      C1644   1.413       .  A
C1644      H1655   1.084       .  S
C1645      C1646   1.395       .  A
C1645      H1656   1.084       .  S
C1646      C1647   1.401       .  A
C1646      H1657   1.084       .  S
C1647      C1648   1.424       .  A
C1647      C1652   1.417       .  A
C1648      C1649   1.412       .  A
C1649      C1650   1.399       .  A
C1649      H1658   1.078       .  S
C1650      C1651   1.408       .  A
C1650      H1659   1.082       .  S
C1651      C1652   1.406       .  A
C1652      H1660   1.083       .  S
C1661      C1662   1.401       .  A
C1661      C1666   1.403       .  A
C1662      C1663   1.404       .  A
C1662      H1675   1.083       .  S
C1663      C1664   1.417       .  A
C1663      H1676   1.078       .  S
C1664      C1670   1.439       .  A
C1664      C1665   1.423       .  A
C1665      C1667   1.400       .  A
C1665      C1666   1.410       .  A
C1666      H1677   1.085       .  S
C1667      C1668   1.391       .  A
C1667      H1678   1.084       .  S
C1668      C1669   1.400       .  A
C1668      H1679   1.084       .  S
C1669      C1670   1.423       .  A
C1669      C1674   1.411       .  A
C1670      C1671   1.417       .  A
C1671      C1672   1.404       .  A
C1671      H1680   1.078       .  S
C1672      C1673   1.404       .  A
C1672      H1681   1.083       .  S
C1673      C1674   1.404       .  A
C1674      H1682   1.084       .  S
C1683      C1684   1.401       .  A
C1683      C1688   1.404       .  A
C1684      C1685   1.408       .  A
C1684      H1697   1.083       .  S
C1685      C1686   1.420       .  A
C1685      H1698   1.078       .  S
C1686      C1692   1.438       .  A
C1686      C1687   1.421       .  A
C1687      C1689   1.399       .  A
C1687      C1688   1.402       .  A
C1688      H1699   1.085       .  S
C1689      C1690   1.388       .  A
C1689      H1700   1.084       .  S
C1690      C1691   1.398       .  A
C1690      H1701   1.084       .  S
C1691      C1692   1.423       .  A
C1691      C1696   1.406       .  A
C1692      C1693   1.415       .  A
C1693      C1694   1.403       .  A
C1693      H1702   1.078       .  S
C1694      C1695   1.406       .  A
C1694      H1703   1.082       .  S
C1695      C1696   1.401       .  A
C1696      H1704   1.079       .  S
C1705      C1706   1.399       .  A
C1705      C1710   1.400       .  A
C1706      C1707   1.398       .  A
C1706      H1719   1.083       .  S
C1707      C1708   1.416       .  A
C1707      H1720   1.077       .  S
C1708      C1714   1.428       .  A
C1708      C1709   1.422       .  A
C1709      C1711   1.399       .  A
C1709      C1710   1.400       .  A
C1710      H1721   1.085       .  S
C1711      C1712   1.387       .  A
C1711      H1722   1.084       .  S
C1712      C1713   1.398       .  A
C1712      H1723   1.084       .  S
C1713      C1714   1.423       .  A
C1713      C1718   1.402       .  A
C1714      C1715   1.415       .  A
C1715      C1716   1.397       .  A
C1715      H1724   1.077       .  S
C1716      C1717   1.399       .  A
C1716      H1725   1.083       .  S
C1717      C1718   1.399       .  A
C1718      H1726   1.085       .  S
C1727      C1728   1.404       .  A
C1727      C1732   1.404       .  A
C1728      C1729   1.409       .  A
C1728      H1741   1.083       .  S
C1729      C1730   1.419       .  A
C1729      H1742   1.078       .  S
C1730      C1736   1.441       .  A
C1730      C1731   1.422       .  A
C1731      C1733   1.400       .  A
C1731      C1732   1.408       .  A
C1732      H1743   1.085       .  S
C1733      C1734   1.390       .  A
C1733      H1744   1.084       .  S
C1734      C1735   1.399       .  A
C1734      H1745   1.084       .  S
C1735      C1736   1.424       .  A
C1735      C1740   1.410       .  A
C1736      C1737   1.417       .  A
C1737      C1738   1.407       .  A
C1737      H1746   1.078       .  S
C1738      C1739   1.404       .  A
C1738      H1747   1.083       .  S
C1739      C1740   1.404       .  A
C1740      H1748   1.084       .  S
C1749      C1750   1.398       .  A
C1749      C1754   1.400       .  A
C1750      C1751   1.393       .  A
C1750      H1763   1.084       .  S
C1751      C1752   1.414       .  A
C1751      H1764   1.076       .  S
C1752      C1758   1.427       .  A
C1752      C1753   1.423       .  A
C1753      C1755   1.399       .  A
C1753      C1754   1.404       .  A
C1754      H1765   1.085       .  S
C1755      C1756   1.390       .  A
C1755      H1766   1.084       .  S
C1756      C1757   1.399       .  A
C1756      H1767   1.084       .  S
C1757      C1758   1.422       .  A
C1757      C1762   1.404       .  A
C1758      C1759   1.414       .  A
C1759      C1760   1.393       .  A
C1759      H1768   1.076       .  S
C1760      C1761   1.398       .  A
C1760      H1769   1.083       .  S
C1761      C1762   1.400       .  A
C1762      H1770   1.084       .  S
C1771      C1772   1.403       .  A
C1771      C1776   1.403       .  A
C1772      C1773   1.404       .  A
C1772      H1785   1.083       .  S
C1773      C1774   1.417       .  A
C1773      H1786   1.078       .  S
C1774      C1780   1.438       .  A
C1774      C1775   1.423       .  A
C1775      C1777   1.399       .  A
C1775      C1776   1.408       .  A
C1776      H1787   1.084       .  S
C1777      C1778   1.390       .  A
C1777      H1788   1.084       .  S
C1778      C1779   1.399       .  A
C1778      H1789   1.084       .  S
C1779      C1780   1.423       .  A
C1779      C1784   1.408       .  A
C1780      C1781   1.417       .  A
C1781      C1782   1.404       .  A
C1781      H1790   1.078       .  S
C1782      C1783   1.403       .  A
C1782      H1791   1.083       .  S
C1783      C1784   1.402       .  A
C1784      H1792   1.084       .  S
C1793      C1794   1.402       .  A
C1793      C1798   1.399       .  A
C1794      C1795   1.405       .  A
C1794      H1807   1.083       .  S
C1795      C1796   1.418       .  A
C1795      H1808   1.078       .  S
C1796      C1802   1.434       .  A
C1796      C1797   1.422       .  A
C1797      C1799   1.397       .  A
C1797      C1798   1.398       .  A
C1798      H1809   1.085       .  S
C1799      C1800   1.384       .  A
C1799      H1810   1.084       .  S
C1800      C1801   1.397       .  A
C1800      H1811   1.084       .  S
C1801      C1802   1.423       .  A
C1801      C1806   1.398       .  A
C1802      C1803   1.418       .  A
C1803      C1804   1.405       .  A
C1803      H1812   1.078       .  S
C1804      C1805   1.401       .  A
C1804      H1813   1.083       .  S
C1805      C1806   1.397       .  A
C1806      H1814   1.085       .  S
C1815      C1816   1.409       .  A
C1815      C1820   1.409       .  A
C1816      C1817   1.406       .  A
C1816      H1829   1.081       .  S
C1817      C1818   1.415       .  A
C1817      H1830   1.078       .  S
C1818      C1824   1.443       .  A
C1818      C1819   1.423       .  A
C1819      C1821   1.400       .  A
C1819      C1820   1.412       .  A
C1820      H1831   1.083       .  S
C1821      C1822   1.391       .  A
C1821      H1832   1.084       .  S
C1822      C1823   1.401       .  A
C1822      H1833   1.084       .  S
C1823      C1824   1.422       .  A
C1823      C1828   1.411       .  A
C1824      C1825   1.419       .  A
C1825      C1826   1.409       .  A
C1825      H1834   1.078       .  S
C1826      C1827   1.404       .  A
C1826      H1835   1.082       .  S
C1827      C1828   1.408       .  A
C1828      H1836   1.083       .  S
C1837      C1838   1.404       .  A
C1837      C1842   1.406       .  A
C1838      C1839   1.408       .  A
C1838      H1851   1.082       .  S
C1839      C1840   1.418       .  A
C1839      H1852   1.078       .  S
C1840      C1846   1.439       .  A
C1840      C1841   1.422       .  A
C1841      C1843   1.400       .  A
C1841      C1842   1.405       .  A
C1842      H1853   1.084       .  S
C1843      C1844   1.388       .  A
C1843      H1854   1.084       .  S
C1844      C1845   1.399       .  A
C1844      H1855   1.084       .  S
C1845      C1846   1.423       .  A
C1845      C1850   1.405       .  A
C1846      C1847   1.419       .  A
C1847      C1848   1.407       .  A
C1847      H1856   1.078       .  S
C1848      C1849   1.401       .  A
C1848      H1857   1.083       .  S
C1849      C1850   1.401       .  A
C1850      H1858   1.085       .  S
C1859      C1860   1.403       .  A
C1859      C1864   1.409       .  A
C1860      C1861   1.410       .  A
C1860      H1873   1.083       .  S
C1861      C1862   1.420       .  A
C1861      H1874   1.078       .  S
C1862      C1868   1.444       .  A
C1862      C1863   1.421       .  A
C1863      C1865   1.401       .  A
C1863      C1864   1.411       .  A
C1864      H1875   1.084       .  S
C1865      C1866   1.392       .  A
C1865      H1876   1.084       .  S
C1866      C1867   1.400       .  A
C1866      H1877   1.084       .  S
C1867      C1868   1.423       .  A
C1867      C1872   1.414       .  A
C1868      C1869   1.414       .  A
C1869      C1870   1.407       .  A
C1869      H1878   1.078       .  S
C1870      C1871   1.411       .  A
C1870      H1879   1.079       .  S
C1871      C1872   1.409       .  A
C1872      H1880   1.084       .  S
C1881      C1882   1.402       .  A
C1881      C1886   1.411       .  A
C1882      C1883   1.400       .  A
C1882      H1895   1.082       .  S
C1883      C1884   1.417       .  A
C1883      H1896   1.077       .  S
C1884      C1890   1.438       .  A
C1884      C1885   1.420       .  A
C1885      C1887   1.404       .  A
C1885      C1886   1.416       .  A
C1886      H1897   1.083       .  S
C1887      C1888   1.398       .  A
C1887      H1898   1.084       .  S
C1888      C1889   1.402       .  A
C1888      H1899   1.084       .  S
C1889      C1890   1.425       .  A
C1889      C1894   1.421       .  A
C1890      C1891   1.411       .  A
C1891      C1892   1.395       .  A
C1891      H1900   1.077       .  S
C1892      C1893   1.405       .  A
C1892      H1901   1.083       .  S
C1893      C1894   1.407       .  A
C1894      H1902   1.084       .  S
C1903      C1904   1.403       .  A
C1903      C1908   1.403       .  A
C1904      C1905   1.409       .  A
C1904      H1917   1.083       .  S
C1905      C1906   1.418       .  A
C1905      H1918   1.078       .  S
C1906      C1912   1.443       .  A
C1906      C1907   1.424       .  A
C1907      C1909   1.400       .  A
C1907      C1908   1.412       .  A
C1908      H1919   1.085       .  S
C1909      C1910   1.391       .  A
C1909      H1920   1.084       .  S
C1910      C1911   1.400       .  A
C1910      H1921   1.084       .  S
C1911      C1912   1.422       .  A
C1911      C1916   1.409       .  A
C1912      C1913   1.420       .  A
C1913      C1914   1.410       .  A
C1913      H1922   1.078       .  S
C1914      C1915   1.403       .  A
C1914      H1923   1.083       .  S
C1915      C1916   1.406       .  A
C1916      H1924   1.084       .  S
C1925      C1926   1.405       .  A
C1925      C1930   1.405       .  A
C1926      C1927   1.396       .  A
C1926      H1939   1.083       .  S
C1927      C1928   1.412       .  A
C1927      H1940   1.077       .  S
C1928      C1934   1.437       .  A
C1928      C1929   1.425       .  A
C1929      C1931   1.401       .  A
C1929      C1930   1.418       .  A
C1930      H1941   1.084       .  S
C1931      C1932   1.395       .  A
C1931      H1942   1.084       .  S
C1932      C1933   1.402       .  A
C1932      H1943   1.084       .  S
C1933      C1934   1.420       .  A
C1933      C1938   1.413       .  A
C1934      C1935   1.416       .  A
C1935      C1936   1.401       .  A
C1935      H1944   1.077       .  S
C1936      C1937   1.405       .  A
C1936      H1945   1.081       .  S
C1937      C1938   1.411       .  A
C1938      H1946   1.082       .  S
C1947      C1948   1.401       .  A
C1947      C1952   1.400       .  A
C1948      C1949   1.403       .  A
C1948      H1961   1.083       .  S
C1949      C1950   1.418       .  A
C1949      H1962   1.078       .  S
C1950      C1956   1.434       .  A
C1950      C1951   1.422       .  A
C1951      C1953   1.398       .  A
C1951      C1952   1.401       .  A
C1952      H1963   1.085       .  S
C1953      C1954   1.386       .  A
C1953      H1964   1.084       .  S
C1954      C1955   1.398       .  A
C1954      H1965   1.084       .  S
C1955      C1956   1.423       .  A
C1955      C1960   1.402       .  A
C1956      C1957   1.417       .  A
C1957      C1958   1.403       .  A
C1957      H1966   1.078       .  S
C1958      C1959   1.400       .  A
C1958      H1967   1.083       .  S
C1959      C1960   1.400       .  A
C1960      H1968   1.085       .  S
C1969      C1970   1.398       .  A
C1969      C1974   1.397       .  A
C1970      C1971   1.397       .  A
C1970      H1983   1.083       .  S
C1971      C1972   1.416       .  A
C1971      H1984   1.077       .  S
C1972      C1978   1.427       .  A
C1972      C1973   1.422       .  A
C1973      C1975   1.397       .  A
C1973      C1974   1.396       .  A
C1974      H1985   1.085       .  S
C1975      C1976   1.384       .  A
C1975      H1986   1.084       .  S
C1976      C1977   1.397       .  A
C1976      H1987   1.084       .  S
C1977      C1978   1.423       .  A
C1977      C1982   1.397       .  A
C1978      C1979   1.415       .  A
C1979      C1980   1.396       .  A
C1979      H1988   1.077       .  S
C1980      C1981   1.399       .  A
C1980      H1989   1.083       .  S
C1981      C1982   1.396       .  A
C1982      H1990   1.085       .  S
C1991      C1992   1.404       .  A
C1991      C1996   1.404       .  A
C1992      C1993   1.404       .  A
C1992      H2005   1.083       .  S
C1993      C1994   1.417       .  A
C1993      H2006   1.078       .  S
C1994      C2000   1.440       .  A
C1994      C1995   1.423       .  A
C1995      C1997   1.400       .  A
C1995      C1996   1.411       .  A
C1996      H2007   1.084       .  S
C1997      C1998   1.391       .  A
C1997      H2008   1.084       .  S
C1998      C1999   1.400       .  A
C1998      H2009   1.084       .  S
C1999      C2000   1.423       .  A
C1999      C2004   1.411       .  A
C2000      C2001   1.417       .  A
C2001      C2002   1.405       .  A
C2001      H2010   1.078       .  S
C2002      C2003   1.404       .  A
C2002      H2011   1.083       .  S
C2003      C2004   1.404       .  A
C2004      H2012   1.084       .  S
C2013      C2014   1.399       .  A
C2013      C2018   1.399       .  A
C2014      C2015   1.400       .  A
C2014      H2027   1.083       .  S
C2015      C2016   1.417       .  A
C2015      H2028   1.078       .  S
C2016      C2022   1.431       .  A
C2016      C2017   1.423       .  A
C2017      C2019   1.398       .  A
C2017      C2018   1.401       .  A
C2018      H2029   1.085       .  S
C2019      C2020   1.387       .  A
C2019      H2030   1.084       .  S
C2020      C2021   1.399       .  A
C2020      H2031   1.084       .  S
C2021      C2022   1.422       .  A
C2021      C2026   1.400       .  A
C2022      C2023   1.417       .  A
C2023      C2024   1.401       .  A
C2023      H2032   1.077       .  S
C2024      C2025   1.399       .  A
C2024      H2033   1.083       .  S
C2025      C2026   1.400       .  A
C2026      H2034   1.085       .  S
C2035      C2036   1.404       .  A
C2035      C2040   1.412       .  A
C2036      C2037   1.400       .  A
C2036      H2049   1.075       .  S
C2037      C2038   1.414       .  A
C2037      H2050   1.077       .  S
C2038      C2044   1.438       .  A
C2038      C2039   1.421       .  A
C2039      C2041   1.403       .  A
C2039      C2040   1.417       .  A
C2040      H2051   1.083       .  S
C2041      C2042   1.397       .  A
C2041      H2052   1.084       .  S
C2042      C2043   1.402       .  A
C2042      H2053   1.084       .  S
C2043      C2044   1.424       .  A
C2043      C2048   1.419       .  A
C2044      C2045   1.413       .  A
C2045      C2046   1.397       .  A
C2045      H2054   1.077       .  S
C2046      C2047   1.404       .  A
C2046      H2055   1.083       .  S
C2047      C2048   1.406       .  A
C2048      H2056   1.084       .  S
C2057      C2058   1.403       .  A
C2057      C2062   1.404       .  A
C2058      C2059   1.405       .  A
C2058      H2071   1.083       .  S
C2059      C2060   1.417       .  A
C2059      H2072   1.078       .  S
C2060      C2066   1.439       .  A
C2060      C2061   1.423       .  A
C2061      C2063   1.400       .  A
C2061      C2062   1.409       .  A
C2062      H2073   1.084       .  S
C2063      C2064   1.390       .  A
C2063      H2074   1.084       .  S
C2064      C2065   1.400       .  A
C2064      H2075   1.084       .  S
C2065      C2066   1.423       .  A
C2065      C2070   1.408       .  A
C2066      C2067   1.419       .  A
C2067      C2068   1.406       .  A
C2067      H2076   1.078       .  S
C2068      C2069   1.401       .  A
C2068      H2077   1.083       .  S
C2069      C2070   1.404       .  A
C2070      H2078   1.085       .  S
C2079      C2080   1.400       .  A
C2079      C2084   1.402       .  A
C2080      C2081   1.402       .  A
C2080      H2093   1.083       .  S
C2081      C2082   1.417       .  A
C2081      H2094   1.078       .  S
C2082      C2088   1.432       .  A
C2082      C2083   1.422       .  A
C2083      C2085   1.400       .  A
C2083      C2084   1.404       .  A
C2084      H2095   1.085       .  S
C2085      C2086   1.389       .  A
C2085      H2096   1.084       .  S
C2086      C2087   1.399       .  A
C2086      H2097   1.084       .  S
C2087      C2088   1.423       .  A
C2087      C2092   1.405       .  A
C2088      C2089   1.416       .  A
C2089      C2090   1.400       .  A
C2089      H2098   1.078       .  S
C2090      C2091   1.399       .  A
C2090      H2099   1.083       .  S
C2091      C2092   1.400       .  A
C2092      H2100   1.085       .  S
C2101      C2102   1.410       .  A
C2101      C2106   1.409       .  A
C2102      C2103   1.406       .  A
C2102      H2115   1.078       .  S
C2103      C2104   1.415       .  A
C2103      H2116   1.078       .  S
C2104      C2110   1.442       .  A
C2104      C2105   1.422       .  A
C2105      C2107   1.400       .  A
C2105      C2106   1.412       .  A
C2106      H2117   1.084       .  S
C2107      C2108   1.392       .  A
C2107      H2118   1.084       .  S
C2108      C2109   1.400       .  A
C2108      H2119   1.084       .  S
C2109      C2110   1.422       .  A
C2109      C2114   1.410       .  A
C2110      C2111   1.418       .  A
C2111      C2112   1.408       .  A
C2111      H2120   1.078       .  S
C2112      C2113   1.404       .  A
C2112      H2121   1.082       .  S
C2113      C2114   1.407       .  A
C2114      H2122   1.083       .  S
C2123      C2124   1.403       .  A
C2123      C2128   1.402       .  A
C2124      C2125   1.405       .  A
C2124      H2137   1.083       .  S
C2125      C2126   1.417       .  A
C2125      H2138   1.078       .  S
C2126      C2132   1.441       .  A
C2126      C2127   1.425       .  A
C2127      C2129   1.400       .  A
C2127      C2128   1.413       .  A
C2128      H2139   1.085       .  S
C2129      C2130   1.393       .  A
C2129      H2140   1.084       .  S
C2130      C2131   1.400       .  A
C2130      H2141   1.084       .  S
C2131      C2132   1.422       .  A
C2131      C2136   1.412       .  A
C2132      C2133   1.418       .  A
C2133      C2134   1.406       .  A
C2133      H2142   1.078       .  S
C2134      C2135   1.403       .  A
C2134      H2143   1.083       .  S
C2135      C2136   1.405       .  A
C2136      H2144   1.084       .  S
C2145      C2146   1.408       .  A
C2145      C2150   1.402       .  A
C2146      C2147   1.409       .  A
C2146      H2159   1.082       .  S
C2147      C2148   1.417       .  A
C2147      H2160   1.079       .  S
C2148      C2154   1.443       .  A
C2148      C2149   1.424       .  A
C2149      C2151   1.398       .  A
C2149      C2150   1.409       .  A
C2150      H2161   1.083       .  S
C2151      C2152   1.388       .  A
C2151      H2162   1.084       .  S
C2152      C2153   1.399       .  A
C2152      H2163   1.084       .  S
C2153      C2154   1.422       .  A
C2153      C2158   1.406       .  A
C2154      C2155   1.421       .  A
C2155      C2156   1.413       .  A
C2155      H2164   1.078       .  S
C2156      C2157   1.404       .  A
C2156      H2165   1.083       .  S
C2157      C2158   1.403       .  A
C2158      H2166   1.084       .  S
C2167      C2168   1.397       .  A
C2167      C2172   1.402       .  A
C2168      C2169   1.396       .  A
C2168      H2181   1.083       .  S
C2169      C2170   1.416       .  A
C2169      H2182   1.077       .  S
C2170      C2176   1.429       .  A
C2170      C2171   1.421       .  A
C2171      C2173   1.400       .  A
C2171      C2172   1.405       .  A
C2172      H2183   1.085       .  S
C2173      C2174   1.391       .  A
C2173      H2184   1.084       .  S
C2174      C2175   1.400       .  A
C2174      H2185   1.084       .  S
C2175      C2176   1.424       .  A
C2175      C2180   1.407       .  A
C2176      C2177   1.414       .  A
C2177      C2178   1.393       .  A
C2177      H2186   1.077       .  S
C2178      C2179   1.398       .  A
C2178      H2187   1.084       .  S
C2179      C2180   1.400       .  A
C2180      H2188   1.085       .  S
C2189      C2190   1.402       .  A
C2189      C2194   1.402       .  A
C2190      C2191   1.406       .  A
C2190      H2203   1.083       .  S
C2191      C2192   1.417       .  A
C2191      H2204   1.078       .  S
C2192      C2198   1.438       .  A
C2192      C2193   1.423       .  A
C2193      C2195   1.399       .  A
C2193      C2194   1.406       .  A
C2194      H2205   1.085       .  S
C2195      C2196   1.388       .  A
C2195      H2206   1.084       .  S
C2196      C2197   1.399       .  A
C2196      H2207   1.084       .  S
C2197      C2198   1.422       .  A
C2197      C2202   1.403       .  A
C2198      C2199   1.419       .  A
C2199      C2200   1.407       .  A
C2199      H2208   1.078       .  S
C2200      C2201   1.402       .  A
C2200      H2209   1.083       .  S
C2201      C2202   1.403       .  A
C2202      H2210   1.084       .  S
C2211      C2212   1.411       .  A
C2211      C2216   1.409       .  A
C2212      C2213   1.398       .  A
C2212      H2225   1.080       .  S
C2213      C2214   1.410       .  A
C2213      H2226   1.078       .  S
C2214      C2220   1.439       .  A
C2214      C2215   1.423       .  A
C2215      C2217   1.401       .  A
C2215      C2216   1.419       .  A
C2216      H2227   1.082       .  S
C2217      C2218   1.396       .  A
C2217      H2228   1.084       .  S
C2218      C2219   1.402       .  A
C2218      H2229   1.084       .  S
C2219      C2220   1.419       .  A
C2219      C2224   1.414       .  A
C2220      C2221   1.415       .  A
C2221      C2222   1.403       .  A
C2221      H2230   1.078       .  S
C2222      C2223   1.409       .  A
C2222      H2231   1.077       .  S
C2223      C2224   1.412       .  A
C2224      H2232   1.084       .  S
C2233      C2234   1.401       .  A
C2233      C2238   1.405       .  A
C2234      C2235   1.401       .  A
C2234      H2247   1.083       .  S
C2235      C2236   1.416       .  A
C2235      H2248   1.077       .  S
C2236      C2242   1.439       .  A
C2236      C2237   1.424       .  A
C2237      C2239   1.402       .  A
C2237      C2238   1.417       .  A
C2238      H2249   1.084       .  S
C2239      C2240   1.396       .  A
C2239      H2250   1.084       .  S
C2240      C2241   1.402       .  A
C2240      H2251   1.084       .  S
C2241      C2242   1.422       .  A
C2241      C2246   1.416       .  A
C2242      C2243   1.416       .  A
C2243      C2244   1.402       .  A
C2243      H2252   1.077       .  S
C2244      C2245   1.402       .  A
C2244      H2253   1.083       .  S
C2245      C2246   1.408       .  A
C2246      H2254   1.084       .  S
C2255      C2256   1.405       .  A
C2255      C2260   1.404       .  A
C2256      C2257   1.405       .  A
C2256      H2269   1.083       .  S
C2257      C2258   1.416       .  A
C2257      H2270   1.078       .  S
C2258      C2264   1.440       .  A
C2258      C2259   1.424       .  A
C2259      C2261   1.400       .  A
C2259      C2260   1.412       .  A
C2260      H2271   1.084       .  S
C2261      C2262   1.391       .  A
C2261      H2272   1.084       .  S
C2262      C2263   1.400       .  A
C2262      H2273   1.084       .  S
C2263      C2264   1.422       .  A
C2263      C2268   1.409       .  A
C2264      C2265   1.419       .  A
C2265      C2266   1.406       .  A
C2265      H2274   1.078       .  S
C2266      C2267   1.402       .  A
C2266      H2275   1.083       .  S
C2267      C2268   1.403       .  A
C2268      H2276   1.085       .  S
C2277      C2278   1.399       .  A
C2277      C2282   1.407       .  A
C2278      C2279   1.405       .  A
C2278      H2291   1.083       .  S
C2279      C2280   1.420       .  A
C2279      H2292   1.076       .  S
C2280      C2286   1.437       .  A
C2280      C2281   1.420       .  A
C2281      C2283   1.401       .  A
C2281      C2282   1.406       .  A
C2282      H2293   1.084       .  S
C2283      C2284   1.391       .  A
C2283      H2294   1.084       .  S
C2284      C2285   1.399       .  A
C2284      H2295   1.084       .  S
C2285      C2286   1.425       .  A
C2285      C2290   1.412       .  A
C2286      C2287   1.412       .  A
C2287      C2288   1.399       .  A
C2287      H2296   1.077       .  S
C2288      C2289   1.407       .  A
C2288      H2297   1.082       .  S
C2289      C2290   1.404       .  A
C2290      H2298   1.082       .  S
C2299      C2300   1.399       .  A
C2299      C2304   1.398       .  A
C2300      C2301   1.397       .  A
C2300      H2313   1.083       .  S
C2301      C2302   1.416       .  A
C2301      H2314   1.078       .  S
C2302      C2308   1.427       .  A
C2302      C2303   1.422       .  A
C2303      C2305   1.398       .  A
C2303      C2304   1.398       .  A
C2304      H2315   1.085       .  S
C2305      C2306   1.386       .  A
C2305      H2316   1.084       .  S
C2306      C2307   1.398       .  A
C2306      H2317   1.084       .  S
C2307      C2308   1.422       .  A
C2307      C2312   1.399       .  A
C2308      C2309   1.416       .  A
C2309      C2310   1.397       .  A
C2309      H2318   1.078       .  S
C2310      C2311   1.398       .  A
C2310      H2319   1.083       .  S
C2311      C2312   1.397       .  A
C2312      H2320   1.085       .  S
C2321      C2322   1.406       .  A
C2321      C2326   1.402       .  A
C2322      C2323   1.405       .  A
C2322      H2335   1.083   1_556  S
C2323      C2324   1.415       .  A
C2323      H2336   1.078       .  S
C2324      C2330   1.441       .  A
C2324      C2325   1.426       .  A
C2325      C2327   1.399       .  A
C2325      C2326   1.412       .  A
C2326      H2337   1.083       .  S
C2327      C2328   1.390       .  A
C2327      H2338   1.084       .  S
C2328      C2329   1.400       .  A
C2328      H2339   1.084       .  S
C2329      C2330   1.420       .  A
C2329      C2334   1.405       .  A
C2330      C2331   1.422       .  A
C2331      C2332   1.411       .  A
C2331      H2340   1.078       .  S
C2332      C2333   1.402       .  A
C2332      H2341   1.083       .  S
C2333      C2334   1.406       .  A
C2334      H2342   1.085       .  S
C2343      C2344   1.399       .  A
C2343      C2348   1.396       .  A
C2344      C2345   1.395       .  A
C2344      H2357   1.084       .  S
C2345      C2346   1.414       .  A
C2345      H2358   1.078       .  S
C2346      C2352   1.428       .  A
C2346      C2347   1.425       .  A
C2347      C2349   1.398       .  A
C2347      C2348   1.403       .  A
C2348      H2359   1.085       .  S
C2349      C2350   1.387       .  A
C2349      H2360   1.084       .  S
C2350      C2351   1.398       .  A
C2350      H2361   1.084       .  S
C2351      C2352   1.422       .  A
C2351      C2356   1.398       .  A
C2352      C2353   1.418       .  A
C2353      C2354   1.399       .  A
C2353      H2362   1.078       .  S
C2354      C2355   1.397       .  A
C2354      H2363   1.083       .  S
C2355      C2356   1.396       .  A
C2356      H2364   1.085       .  S
C2365      C2366   1.399       .  A
C2365      C2370   1.400       .  A
C2366      C2367   1.394       .  A
C2366      H2379   1.083       .  S
C2367      C2368   1.415       .  A
C2367      H2380   1.077       .  S
C2368      C2374   1.428       .  A
C2368      C2369   1.422       .  A
C2369      C2371   1.399       .  A
C2369      C2370   1.404       .  A
C2370      H2381   1.084       .  S
C2371      C2372   1.390       .  A
C2371      H2382   1.084       .  S
C2372      C2373   1.400       .  A
C2372      H2383   1.084       .  S
C2373      C2374   1.423       .  A
C2373      C2378   1.405       .  A
C2374      C2375   1.414       .  A
C2375      C2376   1.394       .  A
C2375      H2384   1.077       .  S
C2376      C2377   1.399       .  A
C2376      H2385   1.083       .  S
C2377      C2378   1.401       .  A
C2378      H2386   1.084       .  S
C2387      C2388   1.402       .  A
C2387      C2392   1.403       .  A
C2388      C2389   1.404       .  A
C2388      H2401   1.083       .  S
C2389      C2390   1.417       .  A
C2389      H2402   1.078       .  S
C2390      C2396   1.437       .  A
C2390      C2391   1.423       .  A
C2391      C2393   1.400       .  A
C2391      C2392   1.409       .  A
C2392      H2403   1.084       .  S
C2393      C2394   1.391       .  A
C2393      H2404   1.084       .  S
C2394      C2395   1.399       .  A
C2394      H2405   1.084       .  S
C2395      C2396   1.424       .  A
C2395      C2400   1.409       .  A
C2396      C2397   1.416       .  A
C2397      C2398   1.402       .  A
C2397      H2406   1.078       .  S
C2398      C2399   1.403       .  A
C2398      H2407   1.083       .  S
C2399      C2400   1.402       .  A
C2400      H2408   1.084       .  S
C2409      C2410   1.403       .  A
C2409      C2414   1.405       .  A
C2410      C2411   1.404       .  A
C2410      H2423   1.083       .  S
C2411      C2412   1.416       .  A
C2411      H2424   1.078       .  S
C2412      C2418   1.441       .  A
C2412      C2413   1.424       .  A
C2413      C2415   1.400       .  A
C2413      C2414   1.413       .  A
C2414      H2425   1.084       .  S
C2415      C2416   1.393       .  A
C2415      H2426   1.084       .  S
C2416      C2417   1.401       .  A
C2416      H2427   1.084       .  S
C2417      C2418   1.423       .  A
C2417      C2422   1.412       .  A
C2418      C2419   1.418       .  A
C2419      C2420   1.406       .  A
C2419      H2428   1.078       .  S
C2420      C2421   1.403       .  A
C2420      H2429   1.083       .  S
C2421      C2422   1.406       .  A
C2422      H2430   1.084       .  S
C2431      C2432   1.400       .  A
C2431      C2436   1.399       .  A
C2432      C2433   1.395       .  A
C2432      H2445   1.083       .  S
C2433      C2434   1.414       .  A
C2433      H2446   1.077       .  S
C2434      C2440   1.428       .  A
C2434      C2435   1.423       .  A
C2435      C2437   1.398       .  A
C2435      C2436   1.403       .  A
C2436      H2447   1.085       .  S
C2437      C2438   1.388       .  A
C2437      H2448   1.084       .  S
C2438      C2439   1.399       .  A
C2438      H2449   1.084       .  S
C2439      C2440   1.422       .  A
C2439      C2444   1.402       .  A
C2440      C2441   1.416       .  A
C2441      C2442   1.396       .  A
C2441      H2450   1.077       .  S
C2442      C2443   1.399       .  A
C2442      H2451   1.083       .  S
C2443      C2444   1.400       .  A
C2444      H2452   1.085       .  S
C2453      C2454   1.400       .  A
C2453      C2458   1.400       .  A
C2454      C2455   1.397       .  A
C2454      H2467   1.083       .  S
C2455      C2456   1.415       .  A
C2455      H2468   1.078       .  S
C2456      C2462   1.429       .  A
C2456      C2457   1.423       .  A
C2457      C2459   1.399       .  A
C2457      C2458   1.404       .  A
C2458      H2469   1.085       .  S
C2459      C2460   1.389       .  A
C2459      H2470   1.084       .  S
C2460      C2461   1.399       .  A
C2460      H2471   1.084       .  S
C2461      C2462   1.421       .  A
C2461      C2466   1.402       .  A
C2462      C2463   1.416       .  A
C2463      C2464   1.399       .  A
C2463      H2472   1.078       .  S
C2464      C2465   1.399       .  A
C2464      H2473   1.083       .  S
C2465      C2466   1.401       .  A
C2466      H2474   1.085       .  S
C2475      C2476   1.409       .  A
C2475      C2480   1.413       .  A
C2476      C2477   1.399       .  A
C2476      H2489   1.076       .  S
C2477      C2478   1.413       .  A
C2477      H2490   1.076       .  S
C2478      C2484   1.437       .  A
C2478      C2479   1.420       .  A
C2479      C2481   1.403       .  A
C2479      C2480   1.416       .  A
C2480      H2491   1.084       .  S
C2481      C2482   1.397       .  A
C2481      H2492   1.083       .  S
C2482      C2483   1.402       .  A
C2482      H2493   1.084       .  S
C2483      C2484   1.421       .  A
C2483      C2488   1.418       .  A
C2484      C2485   1.412       .  A
C2485      C2486   1.397       .  A
C2485      H2494   1.076       .  S
C2486      C2487   1.408       .  A
C2486      H2495   1.080       .  S
C2487      C2488   1.411       .  A
C2488      H2496   1.081       .  S
C2497      C2498   1.403       .  A
C2497      C2502   1.409       .  A
C2498      C2499   1.405       .  A
C2498      H2511   1.076       .  S
C2499      C2500   1.416       .  A
C2499      H2512   1.078       .  S
C2500      C2506   1.442       .  A
C2500      C2501   1.423       .  A
C2501      C2503   1.400       .  A
C2501      C2502   1.412       .  A
C2502      H2513   1.084   1_455  S
C2503      C2504   1.392       .  A
C2503      H2514   1.084       .  S
C2504      C2505   1.401       .  A
C2504      H2515   1.084       .  S
C2505      C2506   1.422       .  A
C2505      C2510   1.411       .  A
C2506      C2507   1.418       .  A
C2507      C2508   1.407       .  A
C2507      H2516   1.078       .  S
C2508      C2509   1.403       .  A
C2508      H2517   1.079       .  S
C2509      C2510   1.409       .  A
C2510      H2518   1.084       .  S
C2519      C2520   1.403       .  A
C2519      C2524   1.403       .  A
C2520      C2521   1.411       .  A
C2520      H2533   1.083       .  S
C2521      C2522   1.421       .  A
C2521      H2534   1.078       .  S
C2522      C2528   1.440       .  A
C2522      C2523   1.421       .  A
C2523      C2525   1.399       .  A
C2523      C2524   1.403       .  A
C2524      H2535   1.085       .  S
C2525      C2526   1.386       .  A
C2525      H2536   1.084       .  S
C2526      C2527   1.398       .  A
C2526      H2537   1.084       .  S
C2527      C2528   1.423       .  A
C2527      C2532   1.405       .  A
C2528      C2529   1.416       .  A
C2529      C2530   1.407       .  A
C2529      H2538   1.079       .  S
C2530      C2531   1.409       .  A
C2530      H2539   1.082   1_455  S
C2531      C2532   1.401       .  A
C2532      H2540   1.076       .  S
C2541      C2542   1.408       .  A
C2541      C2546   1.410       .  A
C2542      C2543   1.403       .  A
C2542      H2555   1.083       .  S
C2543      C2544   1.414       .  A
C2543      H2556   1.078       .  S
C2544      C2550   1.439       .  A
C2544      C2545   1.422       .  A
C2545      C2547   1.400       .  A
C2545      C2546   1.412       .  A
C2546      H2557   1.078       .  S
C2547      C2548   1.391       .  A
C2547      H2558   1.084       .  S
C2548      C2549   1.400       .  A
C2548      H2559   1.084       .  S
C2549      C2550   1.421       .  A
C2549      C2554   1.410       .  A
C2550      C2551   1.415       .  A
C2551      C2552   1.403       .  A
C2551      H2560   1.078       .  S
C2552      C2553   1.407       .  A
C2552      H2561   1.083       .  S
C2553      C2554   1.410       .  A
C2554      H2562   1.078       .  S
C2563      C2564   1.404       .  A
C2563      C2568   1.408       .  A
C2564      C2565   1.408       .  A
C2564      H2577   1.080       .  S
C2565      C2566   1.417       .  A
C2565      H2578   1.078       .  S
C2566      C2572   1.443       .  A
C2566      C2567   1.422       .  A
C2567      C2569   1.400       .  A
C2567      C2568   1.412       .  A
C2568      H2579   1.084       .  S
C2569      C2570   1.392       .  A
C2569      H2580   1.084       .  S
C2570      C2571   1.400       .  A
C2570      H2581   1.084       .  S
C2571      C2572   1.423       .  A
C2571      C2576   1.413       .  A
C2572      C2573   1.417       .  A
C2573      C2574   1.408       .  A
C2573      H2582   1.078       .  S
C2574      C2575   1.404       .  A
C2574      H2583   1.077       .  S
C2575      C2576   1.407       .  A
C2576      H2584   1.084       .  S
C2585      C2586   1.400       .  A
C2585      C2590   1.406       .  A
C2586      C2587   1.405       .  A
C2586      H2599   1.083   1_455  S
C2587      C2588   1.418       .  A
C2587      H2600   1.078       .  S
C2588      C2594   1.439       .  A
C2588      C2589   1.422       .  A
C2589      C2591   1.401       .  A
C2589      C2590   1.409       .  A
C2590      H2601   1.085       .  S
C2591      C2592   1.392       .  A
C2591      H2602   1.084       .  S
C2592      C2593   1.400       .  A
C2592      H2603   1.084       .  S
C2593      C2594   1.424       .  A
C2593      C2598   1.412       .  A
C2594      C2595   1.416       .  A
C2595      C2596   1.403       .  A
C2595      H2604   1.078       .  S
C2596      C2597   1.403       .  A
C2596      H2605   1.083       .  S
C2597      C2598   1.405       .  A
C2598      H2606   1.084       .  S
C2607      C2608   1.399       .  A
C2607      C2612   1.401       .  A
C2608      C2609   1.394       .  A
C2608      H2621   1.083       .  S
C2609      C2610   1.414       .  A
C2609      H2622   1.077       .  S
C2610      C2616   1.427       .  A
C2610      C2611   1.422       .  A
C2611      C2613   1.399       .  A
C2611      C2612   1.403       .  A
C2612      H2623   1.085       .  S
C2613      C2614   1.389       .  A
C2613      H2624   1.084       .  S
C2614      C2615   1.399       .  A
C2614      H2625   1.084       .  S
C2615      C2616   1.422       .  A
C2615      C2620   1.402       .  A
C2616      C2617   1.415       .  A
C2617      C2618   1.394       .  A
C2617      H2626   1.077       .  S
C2618      C2619   1.398       .  A
C2618      H2627   1.083       .  S
C2619      C2620   1.400       .  A
C2620      H2628   1.085       .  S
C2629      C2630   1.404       .  A
C2629      C2634   1.403       .  A
C2630      C2631   1.408       .  A
C2630      H2643   1.083       .  S
C2631      C2632   1.419       .  A
C2631      H2644   1.078       .  S
C2632      C2638   1.441       .  A
C2632      C2633   1.423       .  A
C2633      C2635   1.399       .  A
C2633      C2634   1.408       .  A
C2634      H2645   1.084       .  S
C2635      C2636   1.390       .  A
C2635      H2646   1.084       .  S
C2636      C2637   1.399       .  A
C2636      H2647   1.084       .  S
C2637      C2638   1.424       .  A
C2637      C2642   1.409       .  A
C2638      C2639   1.418       .  A
C2639      C2640   1.407       .  A
C2639      H2648   1.078       .  S
C2640      C2641   1.403       .  A
C2640      H2649   1.083       .  S
C2641      C2642   1.404       .  A
C2642      H2650   1.085       .  S
C2651      C2652   1.403       .  A
C2651      C2656   1.405       .  A
C2652      C2653   1.411       .  A
C2652      H2665   1.083       .  S
C2653      C2654   1.420       .  A
C2653      H2666   1.078       .  S
C2654      C2660   1.441       .  A
C2654      C2655   1.422       .  A
C2655      C2657   1.400       .  A
C2655      C2656   1.406       .  A
C2656      H2667   1.085       .  S
C2657      C2658   1.388       .  A
C2657      H2668   1.084       .  S
C2658      C2659   1.398       .  A
C2658      H2669   1.085       .  S
C2659      C2660   1.425       .  A
C2659      C2664   1.407       .  A
C2660      C2661   1.417       .  A
C2661      C2662   1.407       .  A
C2661      H2670   1.079       .  S
C2662      C2663   1.406       .  A
C2662      H2671   1.083       .  S
C2663      C2664   1.397       .  A
C2664      H2672   1.082       .  S
C2673      C2674   1.405       .  A
C2673      C2678   1.405       .  A
C2674      C2675   1.405       .  A
C2674      H2687   1.083       .  S
C2675      C2676   1.416       .  A
C2675      H2688   1.078       .  S
C2676      C2682   1.441       .  A
C2676      C2677   1.425       .  A
C2677      C2679   1.400       .  A
C2677      C2678   1.414       .  A
C2678      H2689   1.084       .  S
C2679      C2680   1.392       .  A
C2679      H2690   1.084       .  S
C2680      C2681   1.400       .  A
C2680      H2691   1.084       .  S
C2681      C2682   1.422       .  A
C2681      C2686   1.411       .  A
C2682      C2683   1.419       .  A
C2683      C2684   1.407       .  A
C2683      H2692   1.078       .  S
C2684      C2685   1.403       .  A
C2684      H2693   1.083       .  S
C2685      C2686   1.403       .  A
C2686      H2694   1.085       .  S
C2695      C2696   1.398       .  A
C2695      C2700   1.399       .  A
C2696      C2697   1.392       .  A
C2696      H2709   1.084       .  S
C2697      C2698   1.414       .  A
C2697      H2710   1.077       .  S
C2698      C2704   1.426       .  A
C2698      C2699   1.422       .  A
C2699      C2701   1.399       .  A
C2699      C2700   1.403       .  A
C2700      H2711   1.085       .  S
C2701      C2702   1.390       .  A
C2701      H2712   1.084       .  S
C2702      C2703   1.400       .  A
C2702      H2713   1.084       .  S
C2703      C2704   1.422       .  A
C2703      C2708   1.403       .  A
C2704      C2705   1.414       .  A
C2705      C2706   1.393       .  A
C2705      H2714   1.077       .  S
C2706      C2707   1.398       .  A
C2706      H2715   1.083       .  S
C2707      C2708   1.400       .  A
C2708      H2716   1.085       .  S
C2717      C2718   1.402       .  A
C2717      C2722   1.404       .  A
C2718      C2719   1.408       .  A
C2718      H2731   1.083       .  S
C2719      C2720   1.419       .  A
C2719      H2732   1.078       .  S
C2720      C2726   1.440       .  A
C2720      C2721   1.423       .  A
C2721      C2723   1.400       .  A
C2721      C2722   1.408       .  A
C2722      H2733   1.085       .  S
C2723      C2724   1.390       .  A
C2723      H2734   1.084       .  S
C2724      C2725   1.400       .  A
C2724      H2735   1.084       .  S
C2725      C2726   1.423       .  A
C2725      C2730   1.408       .  A
C2726      C2727   1.417       .  A
C2727      C2728   1.407       .  A
C2727      H2736   1.078       .  S
C2728      C2729   1.403       .  A
C2728      H2737   1.083       .  S
C2729      C2730   1.405       .  A
C2730      H2738   1.084       .  S
C2739      C2740   1.399       .  A
C2739      C2744   1.402       .  A
C2740      C2741   1.399       .  A
C2740      H2753   1.083       .  S
C2741      C2742   1.416       .  A
C2741      H2754   1.078       .  S
C2742      C2748   1.431       .  A
C2742      C2743   1.422       .  A
C2743      C2745   1.400       .  A
C2743      C2744   1.406       .  A
C2744      H2755   1.085       .  S
C2745      C2746   1.391       .  A
C2745      H2756   1.084       .  S
C2746      C2747   1.400       .  A
C2746      H2757   1.084       .  S
C2747      C2748   1.424       .  A
C2747      C2752   1.408       .  A
C2748      C2749   1.414       .  A
C2749      C2750   1.396       .  A
C2749      H2758   1.077       .  S
C2750      C2751   1.398       .  A
C2750      H2759   1.084       .  S
C2751      C2752   1.400       .  A
C2752      H2760   1.085       .  S
C2761      C2762   1.399       .  A
C2761      C2766   1.400       .  A
C2762      C2763   1.397       .  A
C2762      H2775   1.083       .  S
C2763      C2764   1.416       .  A
C2763      H2776   1.077       .  S
C2764      C2770   1.428       .  A
C2764      C2765   1.421       .  A
C2765      C2767   1.398       .  A
C2765      C2766   1.399       .  A
C2766      H2777   1.085       .  S
C2767      C2768   1.387       .  A
C2767      H2778   1.084       .  S
C2768      C2769   1.398       .  A
C2768      H2779   1.084       .  S
C2769      C2770   1.423       .  A
C2769      C2774   1.400       .  A
C2770      C2771   1.415       .  A
C2771      C2772   1.396       .  A
C2771      H2780   1.077       .  S
C2772      C2773   1.399       .  A
C2772      H2781   1.083       .  S
C2773      C2774   1.398       .  A
C2774      H2782   1.085       .  S
C2783      C2784   1.403       .  A
C2783      C2788   1.403       .  A
C2784      C2785   1.406       .  A
C2784      H2797   1.083       .  S
C2785      C2786   1.418       .  A
C2785      H2798   1.078       .  S
C2786      C2792   1.440       .  A
C2786      C2787   1.423       .  A
C2787      C2789   1.399       .  A
C2787      C2788   1.409       .  A
C2788      H2799   1.085       .  S
C2789      C2790   1.390       .  A
C2789      H2800   1.084       .  S
C2790      C2791   1.400       .  A
C2790      H2801   1.084       .  S
C2791      C2792   1.423       .  A
C2791      C2796   1.409       .  A
C2792      C2793   1.418       .  A
C2793      C2794   1.407       .  A
C2793      H2802   1.078       .  S
C2794      C2795   1.403       .  A
C2794      H2803   1.083       .  S
C2795      C2796   1.403       .  A
C2796      H2804   1.085       .  S
C2805      C2806   1.398       .  A
C2805      C2810   1.400       .  A
C2806      C2807   1.393       .  A
C2806      H2819   1.083       .  S
C2807      C2808   1.414       .  A
C2807      H2820   1.077       .  S
C2808      C2814   1.427       .  A
C2808      C2809   1.423       .  A
C2809      C2811   1.399       .  A
C2809      C2810   1.404       .  A
C2810      H2821   1.085       .  S
C2811      C2812   1.389       .  A
C2811      H2822   1.084       .  S
C2812      C2813   1.399       .  A
C2812      H2823   1.084       .  S
C2813      C2814   1.422       .  A
C2813      C2818   1.403       .  A
C2814      C2815   1.415       .  A
C2815      C2816   1.393       .  A
C2815      H2824   1.077       .  S
C2816      C2817   1.398       .  A
C2816      H2825   1.083       .  S
C2817      C2818   1.400       .  A
C2818      H2826   1.085       .  S
C2827      C2828   1.403       .  A
C2827      C2832   1.404       .  A
C2828      C2829   1.402       .  A
C2828      H2841   1.083       .  S
C2829      C2830   1.416       .  A
C2829      H2842   1.078       .  S
C2830      C2836   1.437       .  A
C2830      C2831   1.423       .  A
C2831      C2833   1.400       .  A
C2831      C2832   1.410       .  A
C2832      H2843   1.084       .  S
C2833      C2834   1.392       .  A
C2833      H2844   1.084       .  S
C2834      C2835   1.400       .  A
C2834      H2845   1.084       .  S
C2835      C2836   1.423       .  A
C2835      C2840   1.411       .  A
C2836      C2837   1.416       .  A
C2837      C2838   1.402       .  A
C2837      H2846   1.078       .  S
C2838      C2839   1.402       .  A
C2838      H2847   1.083       .  S
C2839      C2840   1.405       .  A
C2840      H2848   1.084       .  S
C2849      C2850   1.398       .  A
C2849      C2854   1.398       .  A
C2850      C2851   1.399       .  A
C2850      H2863   1.083       .  S
C2851      C2852   1.416       .  A
C2851      H2864   1.078       .  S
C2852      C2858   1.429       .  A
C2852      C2853   1.423       .  A
C2853      C2855   1.398       .  A
C2853      C2854   1.401       .  A
C2854      H2865   1.085       .  S
C2855      C2856   1.387       .  A
C2855      H2866   1.084       .  S
C2856      C2857   1.399       .  A
C2856      H2867   1.084       .  S
C2857      C2858   1.422       .  A
C2857      C2862   1.399       .  A
C2858      C2859   1.417       .  A
C2859      C2860   1.400       .  A
C2859      H2868   1.078       .  S
C2860      C2861   1.400       .  A
C2860      H2869   1.083       .  S
C2861      C2862   1.400       .  A
C2862      H2870   1.085       .  S
C2871      C2872   1.409       .  A
C2871      C2876   1.414       .  A
C2872      C2873   1.409       .  A
C2872      H2885   1.083       .  S
C2873      C2874   1.417       .  A
C2873      H2886   1.078       .  S
C2874      C2880   1.445       .  A
C2874      C2875   1.421       .  A
C2875      C2877   1.401       .  A
C2875      C2876   1.412       .  A
C2876      H2887   1.076       .  S
C2877      C2878   1.391       .  A
C2877      H2888   1.084       .  S
C2878      C2879   1.400       .  A
C2878      H2889   1.084       .  S
C2879      C2880   1.421       .  A
C2879      C2884   1.412       .  A
C2880      C2881   1.416       .  A
C2881      C2882   1.409       .  A
C2881      H2890   1.078       .  S
C2882      C2883   1.409       .  A
C2882      H2891   1.077       .  S
C2883      C2884   1.412       .  A
C2884      H2892   1.081       .  S
C2893      C2894   1.401       .  A
C2893      C2898   1.403       .  A
C2894      C2895   1.407       .  A
C2894      H2907   1.083       .  S
C2895      C2896   1.420       .  A
C2895      H2908   1.078       .  S
C2896      C2902   1.436       .  A
C2896      C2897   1.421       .  A
C2897      C2899   1.399       .  A
C2897      C2898   1.401       .  A
C2898      H2909   1.085       .  S
C2899      C2900   1.387       .  A
C2899      H2910   1.084       .  S
C2900      C2901   1.398       .  A
C2900      H2911   1.084       .  S
C2901      C2902   1.424       .  A
C2901      C2906   1.405       .  A
C2902      C2903   1.414       .  A
C2903      C2904   1.402       .  A
C2903      H2912   1.078       .  S
C2904      C2905   1.405       .  A
C2904      H2913   1.083       .  S
C2905      C2906   1.399       .  A
C2906      H2914   1.080       .  S
C2915      C2916   1.406       .  A
C2915      C2920   1.406       .  A
C2916      C2917   1.403       .  A
C2916      H2929   1.082       .  S
C2917      C2918   1.415       .  A
C2917      H2930   1.077       .  S
C2918      C2924   1.442       .  A
C2918      C2919   1.424       .  A
C2919      C2921   1.401       .  A
C2919      C2920   1.417       .  A
C2920      H2931   1.084       .  S
C2921      C2922   1.394       .  A
C2921      H2932   1.084       .  S
C2922      C2923   1.402       .  A
C2922      H2933   1.084       .  S
C2923      C2924   1.420       .  A
C2923      C2928   1.414       .  A
C2924      C2925   1.417       .  A
C2925      C2926   1.406       .  A
C2925      H2934   1.078       .  S
C2926      C2927   1.408       .  A
C2926      H2935   1.081       .  S
C2927      C2928   1.413       .  A
C2928      H2936   1.082       .  S
C2937      C2938   1.403       .  A
C2937      C2942   1.412       .  A
C2938      C2939   1.400       .  A
C2938      H2951   1.077       .  S
C2939      C2940   1.415       .  A
C2939      H2952   1.077       .  S
C2940      C2946   1.438       .  A
C2940      C2941   1.421       .  A
C2941      C2943   1.403       .  A
C2941      C2942   1.415       .  A
C2942      H2953   1.083       .  S
C2943      C2944   1.396       .  A
C2943      H2954   1.084       .  S
C2944      C2945   1.401       .  A
C2944      H2955   1.084       .  S
C2945      C2946   1.425       .  A
C2945      C2950   1.419       .  A
C2946      C2947   1.413       .  A
C2947      C2948   1.397       .  A
C2947      H2956   1.077       .  S
C2948      C2949   1.403       .  A
C2948      H2957   1.084       .  S
C2949      C2950   1.405       .  A
C2950      H2958   1.084       .  S
C2959      C2960   1.403       .  A
C2959      C2964   1.404       .  A
C2960      C2961   1.406       .  A
C2960      H2973   1.083       .  S
C2961      C2962   1.418       .  A
C2961      H2974   1.078       .  S
C2962      C2968   1.440       .  A
C2962      C2963   1.423       .  A
C2963      C2965   1.400       .  A
C2963      C2964   1.410       .  A
C2964      H2975   1.085       .  S
C2965      C2966   1.391       .  A
C2965      H2976   1.084       .  S
C2966      C2967   1.400       .  A
C2966      H2977   1.084       .  S
C2967      C2968   1.422       .  A
C2967      C2972   1.409       .  A
C2968      C2969   1.418       .  A
C2969      C2970   1.407       .  A
C2969      H2978   1.078       .  S
C2970      C2971   1.402       .  A
C2970      H2979   1.079       .  S
C2971      C2972   1.407       .  A
C2972      H2980   1.084       .  S
C2981      C2982   1.404       .  A
C2981      C2986   1.402       .  A
C2982      C2983   1.411       .  A
C2982      H2995   1.083       .  S
C2983      C2984   1.420       .  A
C2983      H2996   1.079       .  S
C2984      C2990   1.442       .  A
C2984      C2985   1.423       .  A
C2985      C2987   1.398       .  A
C2985      C2986   1.404       .  A
C2986      H2997   1.085       .  S
C2987      C2988   1.386       .  A
C2987      H2998   1.084       .  S
C2988      C2989   1.398       .  A
C2988      H2999   1.084       .  S
C2989      C2990   1.423       .  A
C2989      C2994   1.404       .  A
C2990      C2991   1.419       .  A
C2991      C2992   1.411       .  A
C2991      H3000   1.079       .  S
C2992      C2993   1.405       .  A
C2992      H3001   1.083       .  S
C2993      C2994   1.402       .  A
C2994      H3002   1.084       .  S
C3003      C3004   1.399       .  A
C3003      C3008   1.401       .  A
C3004      C3005   1.400       .  A
C3004      H3017   1.083       .  S
C3005      C3006   1.418       .  A
C3005      H3018   1.077       .  S
C3006      C3012   1.431       .  A
C3006      C3007   1.421       .  A
C3007      C3009   1.399       .  A
C3007      C3008   1.402       .  A
C3008      H3019   1.085       .  S
C3009      C3010   1.388       .  A
C3009      H3020   1.084       .  S
C3010      C3011   1.399       .  A
C3010      H3021   1.084       .  S
C3011      C3012   1.424       .  A
C3011      C3016   1.406       .  A
C3012      C3013   1.414       .  A
C3013      C3014   1.397       .  A
C3013      H3022   1.077       .  S
C3014      C3015   1.400       .  A
C3014      H3023   1.083       .  S
C3015      C3016   1.400       .  A
C3016      H3024   1.085       .  S
C3025      C3026   1.399       .  A
C3025      C3030   1.399       .  A
C3026      C3027   1.399       .  A
C3026      H3039   1.083       .  S
C3027      C3028   1.416       .  A
C3027      H3040   1.078       .  S
C3028      C3034   1.429       .  A
C3028      C3029   1.422       .  A
C3029      C3031   1.398       .  A
C3029      C3030   1.399       .  A
C3030      H3041   1.085       .  S
C3031      C3032   1.385       .  A
C3031      H3042   1.084       .  S
C3032      C3033   1.398       .  A
C3032      H3043   1.084       .  S
C3033      C3034   1.423       .  A
C3033      C3038   1.399       .  A
C3034      C3035   1.416       .  A
C3035      C3036   1.398       .  A
C3035      H3044   1.078       .  S
C3036      C3037   1.400       .  A
C3036      H3045   1.083       .  S
C3037      C3038   1.398       .  A
C3038      H3046   1.085       .  S
C3047      C3048   1.403       .  A
C3047      C3052   1.403       .  A
C3048      C3049   1.409       .  A
C3048      H3061   1.083       .  S
C3049      C3050   1.419       .  A
C3049      H3062   1.078       .  S
C3050      C3056   1.442       .  A
C3050      C3051   1.423       .  A
C3051      C3053   1.399       .  A
C3051      C3052   1.407       .  A
C3052      H3063   1.085       .  S
C3053      C3054   1.389       .  A
C3053      H3064   1.084       .  S
C3054      C3055   1.399       .  A
C3054      H3065   1.084       .  S
C3055      C3056   1.423       .  A
C3055      C3060   1.407       .  A
C3056      C3057   1.419       .  A
C3057      C3058   1.409       .  A
C3057      H3066   1.078       .  S
C3058      C3059   1.404       .  A
C3058      H3067   1.083       .  S
C3059      C3060   1.404       .  A
C3060      H3068   1.085       .  S
C3069      C3070   1.398       .  A
C3069      C3074   1.399       .  A
C3070      C3071   1.399       .  A
C3070      H3083   1.083       .  S
C3071      C3072   1.418       .  A
C3071      H3084   1.078       .  S
C3072      C3078   1.428       .  A
C3072      C3073   1.420       .  A
C3073      C3075   1.399       .  A
C3073      C3074   1.400       .  A
C3074      H3085   1.085       .  S
C3075      C3076   1.388       .  A
C3075      H3086   1.084       .  S
C3076      C3077   1.398       .  A
C3076      H3087   1.084       .  S
C3077      C3078   1.424       .  A
C3077      C3082   1.405       .  A
C3078      C3079   1.413       .  A
C3079      C3080   1.395       .  A
C3079      H3088   1.077       .  S
C3080      C3081   1.401       .  A
C3080      H3089   1.083       .  S
C3081      C3082   1.398       .  A
C3082      H3090   1.085       .  S
C3091      C3092   1.406       .  A
C3091      C3096   1.410       .  A
C3092      C3093   1.411       .  A
C3092      H3105   1.082       .  S
C3093      C3094   1.420       .  A
C3093      H3106   1.078       .  S
C3094      C3100   1.443       .  A
C3094      C3095   1.420       .  A
C3095      C3097   1.401       .  A
C3095      C3096   1.408       .  A
C3096      H3107   1.082       .  S
C3097      C3098   1.390       .  A
C3097      H3108   1.084       .  S
C3098      C3099   1.399       .  A
C3098      H3109   1.084       .  S
C3099      C3100   1.424       .  A
C3099      C3104   1.412       .  A
C3100      C3101   1.414       .  A
C3101      C3102   1.406       .  A
C3101      H3110   1.078       .  S
C3102      C3103   1.411       .  A
C3102      H3111   1.080       .  S
C3103      C3104   1.408       .  A
C3104      H3112   1.084       .  S
C3113      C3114   1.404       .  A
C3113      C3118   1.405       .  A
C3114      C3115   1.401       .  A
C3114      H3127   1.083       .  S
C3115      C3116   1.415       .  A
C3115      H3128   1.077       .  S
C3116      C3122   1.439       .  A
C3116      C3117   1.423       .  A
C3117      C3119   1.402       .  A
C3117      C3118   1.416       .  A
C3118      H3129   1.079       .  S
C3119      C3120   1.395       .  A
C3119      H3130   1.084       .  S
C3120      C3121   1.401       .  A
C3120      H3131   1.084       .  S
C3121      C3122   1.423       .  A
C3121      C3126   1.414       .  A
C3122      C3123   1.416       .  A
C3123      C3124   1.402       .  A
C3123      H3132   1.077       .  S
C3124      C3125   1.402       .  A
C3124      H3133   1.083       .  S
C3125      C3126   1.407       .  A
C3126      H3134   1.084       .  S
C3135      C3136   1.400       .  A
C3135      C3140   1.399       .  A
C3136      C3137   1.396       .  A
C3136      H3149   1.083       .  S
C3137      C3138   1.415       .  A
C3137      H3150   1.077       .  S
C3138      C3144   1.428       .  A
C3138      C3139   1.423       .  A
C3139      C3141   1.398       .  A
C3139      C3140   1.402       .  A
C3140      H3151   1.085       .  S
C3141      C3142   1.387       .  A
C3141      H3152   1.084       .  S
C3142      C3143   1.398       .  A
C3142      H3153   1.084       .  S
C3143      C3144   1.422       .  A
C3143      C3148   1.400       .  A
C3144      C3145   1.416       .  A
C3145      C3146   1.396       .  A
C3145      H3154   1.077       .  S
C3146      C3147   1.399       .  A
C3146      H3155   1.083       .  S
C3147      C3148   1.399       .  A
C3148      H3156   1.085       .  S
C3157      C3158   1.403       .  A
C3157      C3162   1.405       .  A
C3158      C3159   1.403       .  A
C3158      H3171   1.083       .  S
C3159      C3160   1.417       .  A
C3159      H3172   1.078       .  S
C3160      C3166   1.438       .  A
C3160      C3161   1.423       .  A
C3161      C3163   1.401       .  A
C3161      C3162   1.411       .  A
C3162      H3173   1.084       .  S
C3163      C3164   1.393       .  A
C3163      H3174   1.084       .  S
C3164      C3165   1.401       .  A
C3164      H3175   1.084       .  S
C3165      C3166   1.424       .  A
C3165      C3170   1.413       .  A
C3166      C3167   1.415       .  A
C3167      C3168   1.401       .  A
C3167      H3176   1.077       .  S
C3168      C3169   1.403       .  A
C3168      H3177   1.083       .  S
C3169      C3170   1.405       .  A
C3170      H3178   1.084       .  S
C3179      C3180   1.399       .  A
C3179      C3184   1.399       .  A
C3180      C3181   1.396       .  A
C3180      H3193   1.083       .  S
C3181      C3182   1.415       .  A
C3181      H3194   1.077       .  S
C3182      C3188   1.428       .  A
C3182      C3183   1.423       .  A
C3183      C3185   1.398       .  A
C3183      C3184   1.402       .  A
C3184      H3195   1.085       .  S
C3185      C3186   1.387       .  A
C3185      H3196   1.084       .  S
C3186      C3187   1.399       .  A
C3186      H3197   1.084       .  S
C3187      C3188   1.422       .  A
C3187      C3192   1.400       .  A
C3188      C3189   1.416       .  A
C3189      C3190   1.397       .  A
C3189      H3198   1.077       .  S
C3190      C3191   1.399       .  A
C3190      H3199   1.083       .  S
C3191      C3192   1.399       .  A
C3192      H3200   1.085       .  S
C3201      C3202   1.404       .  A
C3201      C3206   1.404       .  A
C3202      C3203   1.402       .  A
C3202      H3215   1.083       .  S
C3203      C3204   1.416       .  A
C3203      H3216   1.078       .  S
C3204      C3210   1.439       .  A
C3204      C3205   1.424       .  A
C3205      C3207   1.400       .  A
C3205      C3206   1.413       .  A
C3206      H3217   1.084       .  S
C3207      C3208   1.393       .  A
C3207      H3218   1.084       .  S
C3208      C3209   1.401       .  A
C3208      H3219   1.084       .  S
C3209      C3210   1.423       .  A
C3209      C3214   1.413       .  A
C3210      C3211   1.416       .  A
C3211      C3212   1.403       .  A
C3211      H3220   1.078       .  S
C3212      C3213   1.403       .  A
C3212      H3221   1.083       .  S
C3213      C3214   1.405       .  A
C3214      H3222   1.084       .  S
C3223      C3224   1.403       .  A
C3223      C3228   1.405       .  A
C3224      C3225   1.397       .  A
C3224      H3237   1.084       .  S
C3225      C3226   1.413       .  A
C3225      H3238   1.077       .  S
C3226      C3232   1.436       .  A
C3226      C3227   1.424       .  A
C3227      C3229   1.401       .  A
C3227      C3228   1.416       .  A
C3228      H3239   1.084       .  S
C3229      C3230   1.396       .  A
C3229      H3240   1.084       .  S
C3230      C3231   1.402       .  A
C3230      H3241   1.084       .  S
C3231      C3232   1.421       .  A
C3231      C3236   1.415       .  A
C3232      C3233   1.415       .  A
C3233      C3234   1.399       .  A
C3233      H3242   1.078       .  S
C3234      C3235   1.402       .  A
C3234      H3243   1.078       .  S
C3235      C3236   1.409       .  A
C3236      H3244   1.084       .  S
C3245      C3246   1.398       .  A
C3245      C3250   1.402       .  A
C3246      C3247   1.395       .  A
C3246      H3259   1.083       .  S
C3247      C3248   1.415       .  A
C3247      H3260   1.077       .  S
C3248      C3254   1.430       .  A
C3248      C3249   1.422       .  A
C3249      C3251   1.400       .  A
C3249      C3250   1.407       .  A
C3250      H3261   1.085       .  S
C3251      C3252   1.392       .  A
C3251      H3262   1.084       .  S
C3252      C3253   1.400       .  A
C3252      H3263   1.084       .  S
C3253      C3254   1.423       .  A
C3253      C3258   1.408       .  A
C3254      C3255   1.414       .  A
C3255      C3256   1.394       .  A
C3255      H3264   1.077       .  S
C3256      C3257   1.400       .  A
C3256      H3265   1.083       .  S
C3257      C3258   1.402       .  A
C3258      H3266   1.084       .  S
C3267      C3268   1.408       .  A
C3267      C3272   1.411       .  A
C3268      C3269   1.404       .  A
C3268      H3281   1.083       .  S
C3269      C3270   1.415       .  A
C3269      H3282   1.078       .  S
C3270      C3276   1.441       .  A
C3270      C3271   1.421       .  A
C3271      C3273   1.401       .  A
C3271      C3272   1.412       .  A
C3272      H3283   1.076       .  S
C3273      C3274   1.391       .  A
C3273      H3284   1.084       .  S
C3274      C3275   1.400       .  A
C3274      H3285   1.084       .  S
C3275      C3276   1.421       .  A
C3275      C3280   1.411       .  A
C3276      C3277   1.415       .  A
C3277      C3278   1.404       .  A
C3277      H3286   1.078       .  S
C3278      C3279   1.408       .  A
C3278      H3287   1.083       .  S
C3279      C3280   1.411       .  A
C3280      H3288   1.077       .  S
C3289      C3290   1.404       .  A
C3289      C3294   1.407       .  A
C3290      C3291   1.408       .  A
C3290      H3303   1.082       .  S
C3291      C3292   1.419       .  A
C3291      H3304   1.078       .  S
C3292      C3298   1.441       .  A
C3292      C3293   1.422       .  A
C3293      C3295   1.400       .  A
C3293      C3294   1.408       .  A
C3294      H3305   1.083       .  S
C3295      C3296   1.390       .  A
C3295      H3306   1.084       .  S
C3296      C3297   1.399       .  A
C3296      H3307   1.084       .  S
C3297      C3298   1.423       .  A
C3297      C3302   1.410       .  A
C3298      C3299   1.415       .  A
C3299      C3300   1.406       .  A
C3299      H3308   1.078       .  S
C3300      C3301   1.410       .  A
C3300      H3309   1.081       .  S
C3301      C3302   1.407       .  A
C3302      H3310   1.084       .  S
C3311      C3312   1.405       .  A
C3311      C3316   1.400       .  A
C3312      C3313   1.408       .  A
C3312      H3325   1.083       .  S
C3313      C3314   1.417       .  A
C3313      H3326   1.078       .  S
C3314      C3320   1.442       .  A
C3314      C3315   1.425       .  A
C3315      C3317   1.398       .  A
C3315      C3316   1.407       .  A
C3316      H3327   1.084       .  S
C3317      C3318   1.387       .  A
C3317      H3328   1.084       .  S
C3318      C3319   1.399       .  A
C3318      H3329   1.084       .  S
C3319      C3320   1.421       .  A
C3319      C3324   1.404       .  A
C3320      C3321   1.421       .  A
C3321      C3322   1.412       .  A
C3321      H3330   1.078       .  S
C3322      C3323   1.403       .  A
C3322      H3331   1.083       .  S
C3323      C3324   1.405       .  A
C3324      H3332   1.085       .  S
C3333      C3334   1.401       .  A
C3333      C3338   1.405       .  A
C3334      C3335   1.406       .  A
C3334      H3347   1.083       .  S
C3335      C3336   1.419       .  A
C3335      H3348   1.078       .  S
C3336      C3342   1.438       .  A
C3336      C3337   1.422       .  A
C3337      C3339   1.400       .  A
C3337      C3338   1.406       .  A
C3338      H3349   1.084       .  S
C3339      C3340   1.390       .  A
C3339      H3350   1.084       .  S
C3340      C3341   1.400       .  A
C3340      H3351   1.084       .  S
C3341      C3342   1.423       .  A
C3341      C3346   1.408       .  A
C3342      C3343   1.417       .  A
C3343      C3344   1.405       .  A
C3343      H3352   1.078       .  S
C3344      C3345   1.403       .  A
C3344      H3353   1.083       .  S
C3345      C3346   1.404       .  A
C3346      H3354   1.085       .  S
C3355      C3356   1.405       .  A
C3355      C3360   1.404       .  A
C3356      C3357   1.409       .  A
C3356      H3369   1.083       .  S
C3357      C3358   1.419       .  A
C3357      H3370   1.078       .  S
C3358      C3364   1.443       .  A
C3358      C3359   1.423       .  A
C3359      C3361   1.399       .  A
C3359      C3360   1.410       .  A
C3360      H3371   1.084       .  S
C3361      C3362   1.390       .  A
C3361      H3372   1.084       .  S
C3362      C3363   1.400       .  A
C3362      H3373   1.084       .  S
C3363      C3364   1.423       .  A
C3363      C3368   1.411       .  A
C3364      C3365   1.419       .  A
C3365      C3366   1.409       .  A
C3365      H3374   1.078       .  S
C3366      C3367   1.405       .  A
C3366      H3375   1.083       .  S
C3367      C3368   1.405       .  A
C3368      H3376   1.084       .  S
C3377      C3378   1.399       .  A
C3377      C3382   1.398       .  A
C3378      C3379   1.396       .  A
C3378      H3391   1.083       .  S
C3379      C3380   1.415       .  A
C3379      H3392   1.077       .  S
C3380      C3386   1.428       .  A
C3380      C3381   1.423       .  A
C3381      C3383   1.398       .  A
C3381      C3382   1.401       .  A
C3382      H3393   1.085       .  S
C3383      C3384   1.387       .  A
C3383      H3394   1.084       .  S
C3384      C3385   1.398       .  A
C3384      H3395   1.084       .  S
C3385      C3386   1.422       .  A
C3385      C3390   1.400       .  A
C3386      C3387   1.416       .  A
C3387      C3388   1.397       .  A
C3387      H3396   1.077       .  S
C3388      C3389   1.399       .  A
C3388      H3397   1.083       .  S
C3389      C3390   1.398       .  A
C3390      H3398   1.085       .  S
C3399      C3400   1.397       .  A
C3399      C3404   1.400       .  A
C3400      C3401   1.388       .  A
C3400      H3413   1.084       .  S
C3401      C3402   1.413       .  A
C3401      H3414   1.076       .  S
C3402      C3408   1.424       .  A
C3402      C3403   1.422       .  A
C3403      C3405   1.400       .  A
C3403      C3404   1.404       .  A
C3404      H3415   1.084       .  S
C3405      C3406   1.391       .  A
C3405      H3416   1.084       .  S
C3406      C3407   1.400       .  A
C3406      H3417   1.084       .  S
C3407      C3408   1.422       .  A
C3407      C3412   1.405       .  A
C3408      C3409   1.414       .  A
C3409      C3410   1.389       .  A
C3409      H3418   1.076       .  S
C3410      C3411   1.396       .  A
C3410      H3419   1.083       .  S
C3411      C3412   1.402       .  A
C3412      H3420   1.085       .  S
C3421      C3422   1.404       .  A
C3421      C3426   1.405       .  A
C3422      C3423   1.405       .  A
C3422      H3435   1.083       .  S
C3423      C3424   1.417       .  A
C3423      H3436   1.078       .  S
C3424      C3430   1.442       .  A
C3424      C3425   1.424       .  A
C3425      C3427   1.400       .  A
C3425      C3426   1.413       .  A
C3426      H3437   1.084       .  S
C3427      C3428   1.393       .  A
C3427      H3438   1.084       .  S
C3428      C3429   1.400       .  A
C3428      H3439   1.084       .  S
C3429      C3430   1.424       .  A
C3429      C3434   1.414       .  A
C3430      C3431   1.417       .  A
C3431      C3432   1.406       .  A
C3431      H3440   1.078       .  S
C3432      C3433   1.405       .  A
C3432      H3441   1.083       .  S
C3433      C3434   1.405       .  A
C3434      H3442   1.084       .  S
C3443      C3444   1.399       .  A
C3443      C3448   1.402       .  A
C3444      C3445   1.400       .  A
C3444      H3457   1.083       .  S
C3445      C3446   1.417       .  A
C3445      H3458   1.077       .  S
C3446      C3452   1.431       .  A
C3446      C3447   1.421       .  A
C3447      C3449   1.400       .  A
C3447      C3448   1.403       .  A
C3448      H3459   1.085       .  S
C3449      C3450   1.389       .  A
C3449      H3460   1.084       .  S
C3450      C3451   1.399       .  A
C3450      H3461   1.084       .  S
C3451      C3452   1.424       .  A
C3451      C3456   1.405       .  A
C3452      C3453   1.415       .  A
C3453      C3454   1.398       .  A
C3453      H3462   1.078       .  S
C3454      C3455   1.399       .  A
C3454      H3463   1.083       .  S
C3455      C3456   1.399       .  A
C3456      H3464   1.085       .  S
C3465      C3466   1.409       .  A
C3465      C3470   1.412       .  A
C3466      C3467   1.403       .  A
C3466      H3479   1.083       .  S
C3467      C3468   1.413       .  A
C3467      H3480   1.078       .  S
C3468      C3474   1.442       .  A
C3468      C3469   1.423       .  A
C3469      C3471   1.401       .  A
C3469      C3470   1.418       .  A
C3470      H3481   1.080       .  S
C3471      C3472   1.394       .  A
C3471      H3482   1.084       .  S
C3472      C3473   1.402       .  A
C3472      H3483   1.084       .  S
C3473      C3474   1.420       .  A
C3473      C3478   1.412       .  A
C3474      C3475   1.419       .  A
C3475      C3476   1.408       .  A
C3475      H3484   1.078       .  S
C3476      C3477   1.404       .  A
C3476      H3485   1.082       .  S
C3477      C3478   1.411       .  A
C3478      H3486   1.083       .  S
C3487      C3488   1.404       .  A
C3487      C3492   1.406       .  A
C3488      C3489   1.406       .  A
C3488      H3501   1.083       .  S
C3489      C3490   1.417       .  A
C3489      H3502   1.078       .  S
C3490      C3496   1.442       .  A
C3490      C3491   1.424       .  A
C3491      C3493   1.401       .  A
C3491      C3492   1.414       .  A
C3492      H3503   1.084       .  S
C3493      C3494   1.392       .  A
C3493      H3504   1.084       .  S
C3494      C3495   1.400       .  A
C3494      H3505   1.084       .  S
C3495      C3496   1.423       .  A
C3495      C3500   1.411       .  A
C3496      C3497   1.419       .  A
C3497      C3498   1.406       .  A
C3497      H3506   1.078       .  S
C3498      C3499   1.401       .  A
C3498      H3507   1.083   1_455  S
C3499      C3500   1.405       .  A
C3500      H3508   1.084       .  S
C3509      C3510   1.408       .  A
C3509      C3514   1.409       .  A
C3510      C3511   1.404       .  A
C3510      H3523   1.083       .  S
C3511      C3512   1.415       .  A
C3511      H3524   1.078       .  S
C3512      C3518   1.439       .  A
C3512      C3513   1.422       .  A
C3513      C3515   1.400       .  A
C3513      C3514   1.409       .  A
C3514      H3525   1.078       .  S
C3515      C3516   1.389       .  A
C3515      H3526   1.084       .  S
C3516      C3517   1.399       .  A
C3516      H3527   1.084       .  S
C3517      C3518   1.421       .  A
C3517      C3522   1.407       .  A
C3518      C3519   1.417       .  A
C3519      C3520   1.406       .  A
C3519      H3528   1.078       .  S
C3520      C3521   1.405       .  A
C3520      H3529   1.079       .  S
C3521      C3522   1.408       .  A
C3522      H3530   1.082       .  S
C3531      C3532   1.406       .  A
C3531      C3536   1.405       .  A
C3532      C3533   1.398       .  A
C3532      H3545   1.083       .  S
C3533      C3534   1.413       .  A
C3533      H3546   1.077       .  S
C3534      C3540   1.438       .  A
C3534      C3535   1.424       .  A
C3535      C3537   1.401       .  A
C3535      C3536   1.416       .  A
C3536      H3547   1.083       .  S
C3537      C3538   1.395       .  A
C3537      H3548   1.084       .  S
C3538      C3539   1.402       .  A
C3538      H3549   1.084       .  S
C3539      C3540   1.421       .  A
C3539      C3544   1.415       .  A
C3540      C3541   1.414       .  A
C3541      C3542   1.399       .  A
C3541      H3550   1.077       .  S
C3542      C3543   1.407       .  A
C3542      H3551   1.083       .  S
C3543      C3544   1.411       .  A
C3544      H3552   1.081       .  S
C3553      C3554   1.403       .  A
C3553      C3558   1.401       .  A
C3554      C3555   1.401       .  A
C3554      H3567   1.083       .  S
C3555      C3556   1.416       .  A
C3555      H3568   1.078       .  S
C3556      C3562   1.439       .  A
C3556      C3557   1.424       .  A
C3557      C3559   1.400       .  A
C3557      C3558   1.412       .  A
C3558      H3569   1.082   1_455  S
C3559      C3560   1.393       .  A
C3559      H3570   1.084   1_455  S
C3560      C3561   1.401       .  A
C3560      H3571   1.084       .  S
C3561      C3562   1.423       .  A
C3561      C3566   1.412       .  A
C3562      C3563   1.417       .  A
C3563      C3564   1.403       .  A
C3563      H3572   1.078       .  S
C3564      C3565   1.403       .  A
C3564      H3573   1.083       .  S
C3565      C3566   1.405       .  A
C3566      H3574   1.084       .  S
C3575      C3576   1.404       .  A
C3575      C3580   1.404       .  A
C3576      C3577   1.404       .  A
C3576      H3589   1.083       .  S
C3577      C3578   1.416       .  A
C3577      H3590   1.078       .  S
C3578      C3584   1.439       .  A
C3578      C3579   1.424       .  A
C3579      C3581   1.400       .  A
C3579      C3580   1.411       .  A
C3580      H3591   1.084       .  S
C3581      C3582   1.391       .  A
C3581      H3592   1.084       .  S
C3582      C3583   1.400       .  A
C3582      H3593   1.084       .  S
C3583      C3584   1.423       .  A
C3583      C3588   1.410       .  A
C3584      C3585   1.418       .  A
C3585      C3586   1.405       .  A
C3585      H3594   1.078       .  S
C3586      C3587   1.401       .  A
C3586      H3595   1.083       .  S
C3587      C3588   1.403       .  A
C3588      H3596   1.085       .  S
C3597      C3598   1.401       .  A
C3597      C3602   1.405       .  A
C3598      C3599   1.408       .  A
C3598      H3611   1.083       .  S
C3599      C3600   1.420       .  A
C3599      H3612   1.078       .  S
C3600      C3606   1.439       .  A
C3600      C3601   1.422       .  A
C3601      C3603   1.400       .  A
C3601      C3602   1.406       .  A
C3602      H3613   1.085       .  S
C3603      C3604   1.389       .  A
C3603      H3614   1.084       .  S
C3604      C3605   1.399       .  A
C3604      H3615   1.084       .  S
C3605      C3606   1.423       .  A
C3605      C3610   1.409       .  A
C3606      C3607   1.416       .  A
C3607      C3608   1.405       .  A
C3607      H3616   1.078       .  S
C3608      C3609   1.406       .  A
C3608      H3617   1.082       .  S
C3609      C3610   1.402       .  A
C3610      H3618   1.080       .  S
C3619      C3620   1.398       .  A
C3619      C3624   1.401       .  A
C3620      C3621   1.396       .  A
C3620      H3633   1.083       .  S
C3621      C3622   1.416       .  A
C3621      H3634   1.077       .  S
C3622      C3628   1.428       .  A
C3622      C3623   1.422       .  A
C3623      C3625   1.400       .  A
C3623      C3624   1.403       .  A
C3624      H3635   1.085       .  S
C3625      C3626   1.389       .  A
C3625      H3636   1.084       .  S
C3626      C3627   1.399       .  A
C3626      H3637   1.084       .  S
C3627      C3628   1.423       .  A
C3627      C3632   1.404       .  A
C3628      C3629   1.414       .  A
C3629      C3630   1.393       .  A
C3629      H3638   1.077       .  S
C3630      C3631   1.399       .  A
C3630      H3639   1.083       .  S
C3631      C3632   1.400       .  A
C3632      H3640   1.084       .  S
C3641      C3642   1.403       .  A
C3641      C3646   1.403       .  A
C3642      C3643   1.397       .  A
C3642      H3655   1.084       .  S
C3643      C3644   1.413       .  A
C3643      H3656   1.077       .  S
C3644      C3650   1.436       .  A
C3644      C3645   1.425       .  A
C3645      C3647   1.400       .  A
C3645      C3646   1.415       .  A
C3646      H3657   1.084       .  S
C3647      C3648   1.394       .  A
C3647      H3658   1.084       .  S
C3648      C3649   1.402       .  A
C3648      H3659   1.084       .  S
C3649      C3650   1.420       .  A
C3649      C3654   1.411       .  A
C3650      C3651   1.416       .  A
C3651      C3652   1.400       .  A
C3651      H3660   1.077       .  S
C3652      C3653   1.404       .  A
C3652      H3661   1.079       .  S
C3653      C3654   1.410       .  A
C3654      H3662   1.082       .  S
C3663      C3664   1.400       .  A
C3663      C3668   1.398       .  A
C3664      C3665   1.401       .  A
C3664      H3677   1.083       .  S
C3665      C3666   1.417       .  A
C3665      H3678   1.078       .  S
C3666      C3672   1.432       .  A
C3666      C3667   1.423       .  A
C3667      C3669   1.397       .  A
C3667      C3668   1.399       .  A
C3668      H3679   1.085       .  S
C3669      C3670   1.385       .  A
C3669      H3680   1.084       .  S
C3670      C3671   1.398       .  A
C3670      H3681   1.084       .  S
C3671      C3672   1.422       .  A
C3671      C3676   1.399       .  A
C3672      C3673   1.418       .  A
C3673      C3674   1.402       .  A
C3673      H3682   1.078       .  S
C3674      C3675   1.400       .  A
C3674      H3683   1.083       .  S
C3675      C3676   1.399       .  A
C3676      H3684   1.085       .  S
C3685      C3686   1.399       .  A
C3685      C3690   1.398       .  A
C3686      C3687   1.396       .  A
C3686      H3699   1.083       .  S
C3687      C3688   1.415       .  A
C3687      H3700   1.077       .  S
C3688      C3694   1.427       .  A
C3688      C3689   1.423       .  A
C3689      C3691   1.398       .  A
C3689      C3690   1.399       .  A
C3690      H3701   1.085       .  S
C3691      C3692   1.386       .  A
C3691      H3702   1.084       .  S
C3692      C3693   1.398       .  A
C3692      H3703   1.084       .  S
C3693      C3694   1.422       .  A
C3693      C3698   1.398       .  A
C3694      C3695   1.416       .  A
C3695      C3696   1.396       .  A
C3695      H3704   1.077       .  S
C3696      C3697   1.398       .  A
C3696      H3705   1.083       .  S
C3697      C3698   1.399       .  A
C3698      H3706   1.085       .  S
C3707      C3708   1.403       .  A
C3707      C3712   1.401       .  A
C3708      C3709   1.408       .  A
C3708      H3721   1.083       .  S
C3709      C3710   1.418       .  A
C3709      H3722   1.079       .  S
C3710      C3716   1.440       .  A
C3710      C3711   1.423       .  A
C3711      C3713   1.398       .  A
C3711      C3712   1.407       .  A
C3712      H3723   1.085       .  S
C3713      C3714   1.388       .  A
C3713      H3724   1.084       .  S
C3714      C3715   1.399       .  A
C3714      H3725   1.084       .  S
C3715      C3716   1.423       .  A
C3715      C3720   1.406       .  A
C3716      C3717   1.418       .  A
C3717      C3718   1.408       .  A
C3717      H3726   1.079       .  S
C3718      C3719   1.405       .  A
C3718      H3727   1.083       .  S
C3719      C3720   1.401       .  A
C3720      H3728   1.084       .  S
C3729      C3730   1.403       .  A
C3729      C3734   1.405       .  A
C3730      C3731   1.404       .  A
C3730      H3743   1.083       .  S
C3731      C3732   1.417       .  A
C3731      H3744   1.078       .  S
C3732      C3738   1.440       .  A
C3732      C3733   1.423       .  A
C3733      C3735   1.400       .  A
C3733      C3734   1.412       .  A
C3734      H3745   1.084       .  S
C3735      C3736   1.392       .  A
C3735      H3746   1.084       .  S
C3736      C3737   1.400       .  A
C3736      H3747   1.084       .  S
C3737      C3738   1.423       .  A
C3737      C3742   1.412       .  A
C3738      C3739   1.417       .  A
C3739      C3740   1.404       .  A
C3739      H3748   1.078       .  S
C3740      C3741   1.403       .  A
C3740      H3749   1.083       .  S
C3741      C3742   1.405       .  A
C3742      H3750   1.084       .  S
C3751      C3752   1.399       .  A
C3751      C3756   1.401       .  A
C3752      C3753   1.394       .  A
C3752      H3765   1.083       .  S
C3753      C3754   1.415       .  A
C3753      H3766   1.077       .  S
C3754      C3760   1.428       .  A
C3754      C3755   1.422       .  A
C3755      C3757   1.399       .  A
C3755      C3756   1.404       .  A
C3756      H3767   1.085       .  S
C3757      C3758   1.390       .  A
C3757      H3768   1.084       .  S
C3758      C3759   1.399       .  A
C3758      H3769   1.084       .  S
C3759      C3760   1.423       .  A
C3759      C3764   1.404       .  A
C3760      C3761   1.414       .  A
C3761      C3762   1.394       .  A
C3761      H3770   1.077       .  S
C3762      C3763   1.398       .  A
C3762      H3771   1.083       .  S
C3763      C3764   1.400       .  A
C3764      H3772   1.085       .  S
C3773      C3774   1.401       .  A
C3773      C3778   1.402       .  A
C3774      C3775   1.398       .  A
C3774      H3787   1.083       .  S
C3775      C3776   1.415       .  A
C3775      H3788   1.077       .  S
C3776      C3782   1.432       .  A
C3776      C3777   1.423       .  A
C3777      C3779   1.400       .  A
C3777      C3778   1.407       .  A
C3778      H3789   1.084       .  S
C3779      C3780   1.391       .  A
C3779      H3790   1.084       .  S
C3780      C3781   1.400       .  A
C3780      H3791   1.084       .  S
C3781      C3782   1.422       .  A
C3781      C3786   1.406       .  A
C3782      C3783   1.416       .  A
C3783      C3784   1.399       .  A
C3783      H3792   1.077       .  S
C3784      C3785   1.399       .  A
C3784      H3793   1.083       .  S
C3785      C3786   1.402       .  A
C3786      H3794   1.085       .  S
C3795      C3796   1.406       .  A
C3795      C3800   1.409       .  A
C3796      C3797   1.409       .  A
C3796      H3809   1.079       .  S
C3797      C3798   1.417       .  A
C3797      H3810   1.078       .  S
C3798      C3804   1.444       .  A
C3798      C3799   1.422       .  A
C3799      C3801   1.400       .  A
C3799      C3800   1.412       .  A
C3800      H3811   1.083       .  S
C3801      C3802   1.391       .  A
C3801      H3812   1.084       .  S
C3802      C3803   1.400       .  A
C3802      H3813   1.084       .  S
C3803      C3804   1.422       .  A
C3803      C3808   1.413       .  A
C3804      C3805   1.416       .  A
C3805      C3806   1.409       .  A
C3805      H3814   1.078       .  S
C3806      C3807   1.407       .  A
C3806      H3815   1.078       .  S
C3807      C3808   1.410       .  A
C3808      H3816   1.082       .  S
C3817      C3818   1.409       .  A
C3817      C3822   1.408       .  A
C3818      C3819   1.404       .  A
C3818      H3831   1.077       .  S
C3819      C3820   1.416       .  A
C3819      H3832   1.078       .  S
C3820      C3826   1.439       .  A
C3820      C3821   1.421       .  A
C3821      C3823   1.400       .  A
C3821      C3822   1.409       .  A
C3822      H3833   1.085       .  S
C3823      C3824   1.392       .  A
C3823      H3834   1.084       .  S
C3824      C3825   1.400       .  A
C3824      H3835   1.084       .  S
C3825      C3826   1.421       .  A
C3825      C3830   1.411       .  A
C3826      C3827   1.414       .  A
C3827      C3828   1.403       .  A
C3827      H3836   1.078       .  S
C3828      C3829   1.410       .  A
C3828      H3837   1.077       .  S
C3829      C3830   1.409       .  A
C3830      H3838   1.085       .  S
C3839      C3840   1.402       .  A
C3839      C3844   1.404       .  A
C3840      C3841   1.409       .  A
C3840      H3853   1.083   1_545  S
C3841      C3842   1.420       .  A
C3841      H3854   1.078       .  S
C3842      C3848   1.440       .  A
C3842      C3843   1.422       .  A
C3843      C3845   1.399       .  A
C3843      C3844   1.406       .  A
C3844      H3855   1.084       .  S
C3845      C3846   1.388       .  A
C3845      H3856   1.084       .  S
C3846      C3847   1.399       .  A
C3846      H3857   1.084       .  S
C3847      C3848   1.424       .  A
C3847      C3852   1.407       .  A
C3848      C3849   1.418       .  A
C3849      C3850   1.407       .  A
C3849      H3858   1.078       .  S
C3850      C3851   1.403       .  A
C3850      H3859   1.083       .  S
C3851      C3852   1.402       .  A
C3852      H3860   1.085       .  S
C3861      C3862   1.403       .  A
C3861      C3866   1.406       .  A
C3862      C3863   1.399       .  A
C3862      H3875   1.083       .  S
C3863      C3864   1.414       .  A
C3863      H3876   1.077       .  S
C3864      C3870   1.441       .  A
C3864      C3865   1.425       .  A
C3865      C3867   1.401       .  A
C3865      C3866   1.419       .  A
C3866      H3877   1.084       .  S
C3867      C3868   1.397       .  A
C3867      H3878   1.084       .  S
C3868      C3869   1.404       .  A
C3868      H3879   1.084       .  S
C3869      C3870   1.420       .  A
C3869      C3874   1.417       .  A
C3870      C3871   1.415       .  A
C3871      C3872   1.403       .  A
C3871      H3880   1.077       .  S
C3872      C3873   1.406       .  A
C3872      H3881   1.083       .  S
C3873      C3874   1.416       .  A
C3874      H3882   1.077       .  S
C3883      C3884   1.410       .  A
C3883      C3888   1.411       .  A
C3884      C3885   1.405       .  A
C3884      H3897   1.081       .  S
C3885      C3886   1.415       .  A
C3885      H3898   1.078       .  S
C3886      C3892   1.444       .  A
C3886      C3887   1.422       .  A
C3887      C3889   1.402       .  A
C3887      C3888   1.419       .  A
C3888      H3899   1.080       .  S
C3889      C3890   1.397       .  A
C3889      H3900   1.084       .  S
C3890      C3891   1.402       .  A
C3890      H3901   1.084       .  S
C3891      C3892   1.422       .  A
C3891      C3896   1.419       .  A
C3892      C3893   1.414       .  A
C3893      C3894   1.404       .  A
C3893      H3902   1.078       .  S
C3894      C3895   1.412       .  A
C3894      H3903   1.078       .  S
C3895      C3896   1.413       .  A
C3896      H3904   1.084       .  S
C3905      C3906   1.403       .  A
C3905      C3910   1.405       .  A
C3906      C3907   1.407       .  A
C3906      H3919   1.083       .  S
C3907      C3908   1.418       .  A
C3907      H3920   1.078       .  S
C3908      C3914   1.440       .  A
C3908      C3909   1.423       .  A
C3909      C3911   1.400       .  A
C3909      C3910   1.409       .  A
C3910      H3921   1.085       .  S
C3911      C3912   1.391       .  A
C3911      H3922   1.084       .  S
C3912      C3913   1.400       .  A
C3912      H3923   1.084       .  S
C3913      C3914   1.423       .  A
C3913      C3918   1.409       .  A
C3914      C3915   1.418       .  A
C3915      C3916   1.406       .  A
C3915      H3924   1.078       .  S
C3916      C3917   1.403       .  A
C3916      H3925   1.083       .  S
C3917      C3918   1.406       .  A
C3918      H3926   1.084       .  S
C3927      C3928   1.398       .  A
C3927      C3932   1.400       .  A
C3928      C3929   1.397       .  A
C3928      H3941   1.083       .  S
C3929      C3930   1.416       .  A
C3929      H3942   1.077       .  S
C3930      C3936   1.427       .  A
C3930      C3931   1.422       .  A
C3931      C3933   1.399       .  A
C3931      C3932   1.399       .  A
C3932      H3943   1.085       .  S
C3933      C3934   1.386       .  A
C3933      H3944   1.084       .  S
C3934      C3935   1.398       .  A
C3934      H3945   1.084       .  S
C3935      C3936   1.423       .  A
C3935      C3940   1.399       .  A
C3936      C3937   1.415       .  A
C3937      C3938   1.396       .  A
C3937      H3946   1.077       .  S
C3938      C3939   1.398       .  A
C3938      H3947   1.083       .  S
C3939      C3940   1.398       .  A
C3940      H3948   1.085       .  S
C3949      C3950   1.404       .  A
C3949      C3954   1.404       .  A
C3950      C3951   1.406       .  A
C3950      H3963   1.083       .  S
C3951      C3952   1.418       .  A
C3951      H3964   1.078       .  S
C3952      C3958   1.441       .  A
C3952      C3953   1.423       .  A
C3953      C3955   1.400       .  A
C3953      C3954   1.410       .  A
C3954      H3965   1.085       .  S
C3955      C3956   1.391       .  A
C3955      H3966   1.084       .  S
C3956      C3957   1.400       .  A
C3956      H3967   1.084       .  S
C3957      C3958   1.423       .  A
C3957      C3962   1.411       .  A
C3958      C3959   1.417       .  A
C3959      C3960   1.406       .  A
C3959      H3968   1.078       .  S
C3960      C3961   1.404       .  A
C3960      H3969   1.083       .  S
C3961      C3962   1.404       .  A
C3962      H3970   1.084       .  S
C3971      C3972   1.405       .  A
C3971      C3976   1.406       .  A
C3972      C3973   1.395       .  A
C3972      H3985   1.083       .  S
C3973      C3974   1.410       .  A
C3973      H3986   1.077       .  S
C3974      C3980   1.436       .  A
C3974      C3975   1.426       .  A
C3975      C3977   1.401       .  A
C3975      C3976   1.420       .  A
C3976      H3987   1.084       .  S
C3977      C3978   1.396       .  A
C3977      H3988   1.084       .  S
C3978      C3979   1.403       .  A
C3978      H3989   1.084       .  S
C3979      C3980   1.418       .  A
C3979      C3984   1.412       .  A
C3980      C3981   1.416       .  A
C3981      C3982   1.401       .  A
C3981      H3990   1.077       .  S
C3982      C3983   1.403       .  A
C3982      H3991   1.079       .  S
C3983      C3984   1.414       .  A
C3984      H3992   1.082   1_565  S
C3993      C3994   1.403       .  A
C3993      C3998   1.404       .  A
C3994      C3995   1.407       .  A
C3994      H4007   1.083       .  S
C3995      C3996   1.418       .  A
C3995      H4008   1.078       .  S
C3996      C4002   1.441       .  A
C3996      C3997   1.423       .  A
C3997      C3999   1.399       .  A
C3997      C3998   1.409       .  A
C3998      H4009   1.085       .  S
C3999      C4000   1.390       .  A
C3999      H4010   1.084       .  S
C4000      C4001   1.400       .  A
C4000      H4011   1.084       .  S
C4001      C4002   1.423       .  A
C4001      C4006   1.409       .  A
C4002      C4003   1.419       .  A
C4003      C4004   1.409       .  A
C4003      H4012   1.078       .  S
C4004      C4005   1.403       .  A
C4004      H4013   1.083       .  S
C4005      C4006   1.405       .  A
C4006      H4014   1.085       .  S
C4015      C4016   1.397       .  A
C4015      C4020   1.396       .  A
C4016      C4017   1.396       .  A
C4016      H4029   1.083       .  S
C4017      C4018   1.416       .  A
C4017      H4030   1.077       .  S
C4018      C4024   1.426       .  A
C4018      C4019   1.423       .  A
C4019      C4021   1.397       .  A
C4019      C4020   1.396       .  A
C4020      H4031   1.085       .  S
C4021      C4022   1.385       .  A
C4021      H4032   1.084       .  S
C4022      C4023   1.398       .  A
C4022      H4033   1.084       .  S
C4023      C4024   1.422       .  A
C4023      C4028   1.396       .  A
C4024      C4025   1.416       .  A
C4025      C4026   1.397       .  A
C4025      H4034   1.077       .  S
C4026      C4027   1.398       .  A
C4026      H4035   1.083       .  S
C4027      C4028   1.397       .  A
C4028      H4036   1.085       .  S
C4037      C4038   1.405       .  A
C4037      C4042   1.403       .  A
C4038      C4039   1.398       .  A
C4038      H4051   1.083       .  S
C4039      C4040   1.413       .  A
C4039      H4052   1.077       .  S
C4040      C4046   1.437       .  A
C4040      C4041   1.425       .  A
C4041      C4043   1.400       .  A
C4041      C4042   1.416       .  A
C4042      H4053   1.084       .  S
C4043      C4044   1.394       .  A
C4043      H4054   1.084       .  S
C4044      C4045   1.401       .  A
C4044      H4055   1.084       .  S
C4045      C4046   1.422       .  A
C4045      C4050   1.411       .  A
C4046      C4047   1.418       .  A
C4047      C4048   1.402       .  A
C4047      H4056   1.077       .  S
C4048      C4049   1.399       .  A
C4048      H4057   1.080       .  S
C4049      C4050   1.404       .  A
C4050      H4058   1.084       .  S
C4059      C4060   1.398       .  A
C4059      C4064   1.400       .  A
C4060      C4061   1.399       .  A
C4060      H4073   1.083       .  S
C4061      C4062   1.416       .  A
C4061      H4074   1.077       .  S
C4062      C4068   1.429       .  A
C4062      C4063   1.422       .  A
C4063      C4065   1.399       .  A
C4063      C4064   1.401       .  A
C4064      H4075   1.085       .  S
C4065      C4066   1.387       .  A
C4065      H4076   1.084       .  S
C4066      C4067   1.399       .  A
C4066      H4077   1.084       .  S
C4067      C4068   1.422       .  A
C4067      C4072   1.401       .  A
C4068      C4069   1.416       .  A
C4069      C4070   1.398       .  A
C4069      H4078   1.078       .  S
C4070      C4071   1.399       .  A
C4070      H4079   1.083       .  S
C4071      C4072   1.400       .  A
C4072      H4080   1.085       .  S
