geometry optimzed in LAMMPS
_audit_creation_date              2020-11-30 
_audit_creation_method            'lammps2cif' 
_symmetry_space_group_name_H-M    'P1' 
_symmetry_Int_Tables_number       1 
_symmetry_cell_setting            triclinic 
loop_ 
_symmetry_equiv_pos_as_xyz 
  x,y,z 
_cell_length_a                    22.05167228 
_cell_length_b                    22.223847943343216 
_cell_length_c                    21.939312809869232 
_cell_angle_alpha                 90.58581434469298 
_cell_angle_beta                  90.58150569623538 
_cell_angle_gamma                 88.7678548384196 
loop_ 
_atom_site_label 
_atom_site_type_symbol 
_atom_site_fract_x 
_atom_site_fract_y 
_atom_site_fract_z 
_atom_site_charge 
C1          C  0.59856633  0.60059992  0.60246300    -0.03400
C2          C  0.94665345  0.10416958  0.60455054    -0.03400
C3          C  0.10161084  0.60678211  0.94862812    -0.03400
C4          C  0.44209455  0.44147061  0.45032325    -0.03400
C5          C  0.60616843  0.94237819  0.10054895    -0.03400
C6          C  0.94704852  0.44935105  0.09924992    -0.03400
C7          C  0.44931321  0.10566271  0.94913519    -0.03400
C8          C  0.10447060  0.93970022  0.45129894    -0.03400
O9          O  0.08245779  0.90316348  0.96121817    -0.79400
C10         C  0.99821504  0.05323886  0.86212915     0.81600
O11         O  0.16844902  0.08158593  0.05070411    -0.80500
O12         O  0.96378573  0.16170189  0.02442628    -0.82000
O13         O  0.89915849  0.95810809  0.06757935    -0.81800
O14         O  0.02579998  0.87903912  0.04032933    -0.80500
Zn15       Zn  0.07951140  0.99453297  0.95989363     1.55700
O16         O  0.87489179  0.04334644  0.02007580    -0.81900
Cd17       Cd  0.99335063  0.95973159  0.07280885     1.59700
Cd18       Cd  0.07982643  0.07761051  0.08168274     1.59600
O19         O  0.02003456  0.96442879  0.16269477    -0.81800
O20         O  0.02915750  0.02630674  0.02620292    -1.92300
Cd21       Cd  0.95882411  0.07451054  0.99438175     1.59900
O22         O  0.08228675  0.04207341  0.16892922    -0.81800
O23         O  0.96075700  0.07454295  0.90096765    -0.80500
C24         C  0.19508388  0.05604675  0.00571773     0.82100
C25         C  0.06009970  0.86402877  0.99621485     0.81700
O26         O  0.04559579  0.02303851  0.87811571    -0.79400
C27         C  0.85967847  0.99552382  0.04686897     0.82500
O28         O  0.16666333  0.02185119  0.96868540    -0.79500
C29         C  0.05595868  0.99771813  0.19306303     0.82700
C30         C  0.99923348  0.19048603  0.05976368     0.83000
O31         O  0.04501878  0.16511322  0.08556136    -0.81900
O32         O  0.37616428  0.03304850  0.53147849    -0.79400
C33         C  0.49545913  0.05706396  0.69052126     0.81600
O34         O  0.53438277  0.15941669  0.46442778    -0.80500
O35         O  0.66377927  0.01682932  0.58658975    -0.82000
O36         O  0.52617251  0.87317288  0.51074034    -0.81800
O37         O  0.40146277  0.95420253  0.47296828    -0.80500
Zn38       Zn  0.45546936  0.06954008  0.55793459     1.55700
O39         O  0.57318702  0.89770267  0.59775805    -0.81900
Cd40       Cd  0.49493821  0.95429109  0.47577009     1.59700
Cd41       Cd  0.57524698  0.07477058  0.47320255     1.59600
O42         O  0.52424841  0.95859626  0.38716550    -0.81800
O43         O  0.52432388  0.02329786  0.52592476    -1.92300
Cd44       Cd  0.57457167  0.99138125  0.59528476     1.59900
O45         O  0.58607051  0.03665875  0.38635750    -0.81800
O46         O  0.54359472  0.02695173  0.67756398    -0.80500
C47         C  0.48917091  0.18410482  0.49146044     0.82100
C48         C  0.36156660  0.98844301  0.49782419     0.81700
O49         O  0.45748561  0.07351716  0.64956763    -0.79400
C50         C  0.55452320  0.85843709  0.55945425     0.82500
O51         O  0.45684561  0.15537374  0.52866284    -0.79500
C52         C  0.56104604  0.99210950  0.35973533     0.82700
C53         C  0.68923201  0.05615881  0.55422430     0.83000
O54         O  0.66094288  0.08482949  0.51219004    -0.81900
O55         O  0.67118064  0.53815968  0.01615584    -0.79400
C56         C  0.55163108  0.54897918  0.85906462     0.81600
O57         O  0.50517842  0.66498355  0.08362320    -0.80500
O58         O  0.38760704  0.52578285  0.96336395    -0.82000
O59         O  0.53395443  0.37594650  0.03994179    -0.81800
O60         O  0.65193379  0.46309765  0.07945275    -0.80500
Zn61       Zn  0.59000433  0.57263253  0.99161816     1.55700
O62         O  0.47391360  0.40032548  0.96114974    -0.81900
Cd63       Cd  0.55877325  0.45873917  0.07711140     1.59700
Cd64       Cd  0.47238625  0.57836042  0.08087979     1.59600
O65         O  0.53074100  0.46462791  0.16745790    -0.81800
O66         O  0.52497123  0.52644503  0.02682671    -1.92300
Cd67       Cd  0.47503398  0.49320584  0.95845623     1.59900
O68         O  0.47049433  0.54636371  0.16979795    -0.81800
O69         O  0.50618698  0.51824024  0.87400004    -0.80500
C70         C  0.55093286  0.68839008  0.05882272     0.82100
C71         C  0.68876668  0.49652723  0.05194943     0.81700
O72         O  0.58706776  0.57173503  0.89893035    -0.79400
C73         C  0.49981818  0.36104441  0.99509061     0.82500
O74         O  0.58621373  0.65861078  0.02341006    -0.79500
C75         C  0.49621667  0.50163295  0.19630810     0.82700
C76         C  0.35887460  0.56010626  0.00037341     0.83000
O77         O  0.38408602  0.58270791  0.04764009    -0.81900
O78         O  0.01493943  0.67113277  0.53856849    -0.79400
C79         C  0.85557728  0.55926968  0.54542258     0.81600
O80         O  0.07041067  0.50438080  0.66961969    -0.80500
O81         O  0.95763970  0.38807011  0.52095675    -0.82000
O82         O  0.03585414  0.53242316  0.37484782    -0.81800
O83         O  0.08102044  0.64579974  0.46588696    -0.80500
Zn84       Zn  0.98691710  0.59207399  0.57269574     1.55700
O85         O  0.95986444  0.47213775  0.39686448    -0.81900
Cd86       Cd  0.07192373  0.55346388  0.45946196     1.59700
Cd87       Cd  0.07121216  0.47130759  0.58151180     1.59600
O88         O  0.15701696  0.51333762  0.46275033    -0.81800
O89         O  0.02052545  0.52402961  0.52684391    -1.92300
Cd90       Cd  0.95380381  0.47577600  0.49049172     1.59900
O91         O  0.16035877  0.46552356  0.55182239    -0.81800
O92         O  0.87019582  0.51338779  0.51296244    -0.80500
C93         C  0.04475263  0.55077145  0.69329282     0.82100
C94         C  0.05318527  0.68531074  0.49824791     0.81700
O95         O  0.89555852  0.59232960  0.57023628    -0.79400
C96         C  0.99339016  0.49767791  0.35835838     0.82500
O97         O  0.01264937  0.58729397  0.66137085    -0.79500
C98         C  0.18533185  0.48235312  0.50284923     0.82700
C99         C  0.99276737  0.35980726  0.55778177     0.83000
O100        O  0.03726993  0.38515778  0.58437820    -0.81900
C101        C  0.19107862  0.98726865  0.51636467    -0.14300
C102        C  0.17220707  0.95304480  0.46511356     0.07900
C103        C  0.21765626  0.93071771  0.42528203    -0.14300
C104        C  0.27884070  0.94166256  0.43628675    -0.14300
C105        C  0.29676148  0.97625478  0.48685023     0.07900
C106        C  0.25232918  0.99911558  0.52660181    -0.14300
H107        H  0.15914126  0.00488850  0.54936721     0.11800
H108        H  0.20553496  0.90382318  0.38574093     0.11800
H109        H  0.31210700  0.92352918  0.40471088     0.11800
H110        H  0.26499953  0.02554463  0.56628460     0.11800
C111        C  0.13857546  0.82881498  0.47832579    -0.14300
C112        C  0.09182296  0.87196693  0.46558778     0.07900
C113        C  0.03140623  0.85142662  0.46797750    -0.14300
C114        C  0.01870796  0.79132894  0.48005027    -0.14300
C115        C  0.06594285  0.74922457  0.48875106     0.07900
C116        C  0.12579976  0.76838678  0.48790278    -0.14300
H117        H  0.18570428  0.84010795  0.48116287     0.11800
H118        H  0.99355653  0.88236975  0.46026185     0.11800
H119        H  0.97195535  0.77741643  0.48100134     0.11800
H120        H  0.16291135  0.73658923  0.49589861     0.11800
C121        C  0.05245771  0.91885095  0.34511323    -0.14300
C122        C  0.09155733  0.95349171  0.38230988     0.07900
C123        C  0.12006758  0.00239836  0.35376783    -0.14300
C124        C  0.10823477  0.01720251  0.29307107    -0.14300
C125        C  0.06796208  0.98330614  0.25784996     0.07900
C126        C  0.04060511  0.93380476  0.28447255    -0.14300
H127        H  0.03033304  0.87956725  0.36095676     0.11800
H128        H  0.15202325  0.02998076  0.37850724     0.11800
H129        H  0.13097268  0.05515286  0.27375103     0.11800
H130        H  0.01003199  0.90591652  0.25822365     0.11800
C131        C  0.43108471  0.21820891  0.93172826    -0.14300
C132        C  0.46551514  0.17250905  0.96118127     0.07900
C133        C  0.51527116  0.19062788  0.99774202    -0.14300
C134        C  0.52605853  0.25154253  0.00905196    -0.14300
C135        C  0.48935870  0.29642641  0.98210070     0.07900
C136        C  0.44255847  0.27902750  0.94223651    -0.14300
H137        H  0.39397981  0.20656539  0.90143189     0.11800
H138        H  0.54692157  0.15847356  0.01750400     0.11800
H139        H  0.56377899  0.26349771  0.03842849     0.11800
H140        H  0.41394225  0.31246214  0.91982586     0.11800
C141        C  0.51851855  0.10093894  0.85595624    -0.14300
C142        C  0.45937883  0.09647629  0.87961995     0.07900
C143        C  0.41150163  0.08730680  0.83736615    -0.14300
C144        C  0.42330444  0.07562695  0.77587444    -0.14300
C145        C  0.48302736  0.07325702  0.75462998     0.07900
C146        C  0.53048102  0.08730499  0.79487130    -0.14300
H147        H  0.55616785  0.11181454  0.88589524     0.11800
H148        H  0.36456523  0.08954126  0.85089548     0.11800
H149        H  0.38566114  0.06711875  0.74508657     0.11800
H150        H  0.57681130  0.08802194  0.77899790     0.11800
C151        C  0.29731046  0.02397799  0.96598492    -0.14300
C152        C  0.26034361  0.06705716  0.99567139     0.07900
C153        C  0.28614942  0.12118300  0.01513093    -0.10300
C154        C  0.34647175  0.13373504  0.00171205    -0.14300
C155        C  0.38298926  0.09252361  0.96790446     0.07900
C156        C  0.35814566  0.03583121  0.95399148    -0.14300
H157        H  0.27916749  0.98103514  0.95203864     0.11800
H158        H  0.25919928  0.15461856  0.03961782     0.11800
H159        H  0.36393989  0.17583953  0.01852977     0.11800
H160        H  0.38540326  0.00153409  0.93110112     0.11800
C161        C  0.94100324  0.42332250  0.21233881    -0.14300
C162        C  0.96256540  0.46219522  0.16715532     0.07900
C163        C  0.99534126  0.51300129  0.18666514    -0.14300
C164        C  0.00584822  0.52420731  0.24861498    -0.14300
C165        C  0.98313951  0.48574054  0.29282587     0.07900
C166        C  0.95075425  0.43514991  0.27403966    -0.14300
H167        H  0.91480727  0.38437065  0.19966388     0.11800
H168        H  0.01208274  0.54522433  0.15470782     0.11800
H169        H  0.03081864  0.56375189  0.26196788     0.11800
H170        H  0.93295952  0.40444853  0.30709217     0.11800
C171        C  0.85445371  0.46288186  0.02712466    -0.14300
C172        C  0.87842475  0.46489144  0.08735856     0.07900
C173        C  0.83798579  0.48304506  0.13431103    -0.14300
C174        C  0.77640501  0.49246930  0.12246919    -0.14300
C175        C  0.75365411  0.48756240  0.06315929     0.07900
C176        C  0.79305203  0.47443897  0.01519202    -0.14300
H177        H  0.88366116  0.45123222  0.98917726     0.11800
H178        H  0.85241828  0.49016423  0.18081982     0.11800
H179        H  0.74644187  0.50451819  0.15973109     0.11800
H180        H  0.77603013  0.47147395  0.96879271     0.11800
C181        C  0.91926489  0.34226758  0.05681319    -0.14300
C182        C  0.96064465  0.38072245  0.08692557     0.07900
C183        C  0.01355280  0.35254923  0.11198585    -0.14300
C184        C  0.02642102  0.29125655  0.10337302    -0.14300
C185        C  0.98623894  0.25519675  0.07041198     0.07900
C186        C  0.93236562  0.28131587  0.04785721    -0.14300
H187        H  0.87548198  0.35691435  0.04050661     0.11800
H188        H  0.04460017  0.37747693  0.14068781     0.11800
H189        H  0.06766325  0.27211040  0.12298258     0.11800
H190        H  0.89931977  0.25433757  0.02378296     0.11800
C191        C  0.52511898  0.01432129  0.96200177    -0.14300
C192        C  0.48937672  0.06153804  0.98756485     0.07900
C193        C  0.48917026  0.06689962  0.05161512    -0.14300
C194        C  0.52697080  0.03080426  0.08805853    -0.14300
C195        C  0.56411395  0.98479139  0.06228590     0.07900
C196        C  0.56337317  0.97858620  0.99832054    -0.14300
H197        H  0.52374616  0.00356277  0.91394993     0.11800
H198        H  0.46122186  0.10131948  0.07350434     0.11800
H199        H  0.52713289  0.04053527  0.13633447     0.11800
H200        H  0.59116983  0.94398448  0.97650210     0.11800
C201        C  0.54070803  0.94193455  0.19596035    -0.14300
C202        C  0.59757425  0.95386635  0.17000134     0.07900
C203        C  0.64376709  0.97485455  0.20967935    -0.14300
C204        C  0.63165400  0.98855419  0.27086981    -0.14300
C205        C  0.57422338  0.97861717  0.29507186     0.07900
C206        C  0.52931787  0.95395823  0.25735548    -0.14300
H207        H  0.50421413  0.92462838  0.16791938     0.11800
H208        H  0.68957021  0.98097199  0.19456218     0.11800
H209        H  0.66764351  0.00574988  0.29968254     0.11800
H210        H  0.48472402  0.94520376  0.27505441     0.11800
C211        C  0.53707962  0.85740848  0.05735521    -0.14300
C212        C  0.58962727  0.87516948  0.09013732     0.07900
C213        C  0.62465267  0.82915111  0.11856701    -0.14300
C214        C  0.61291730  0.76836446  0.10743436    -0.14300
C215        C  0.56320027  0.75199249  0.07125541     0.07900
C216        C  0.52438646  0.79672877  0.04790348    -0.14300
H217        H  0.50439351  0.88972843  0.03960978     0.11800
H218        H  0.66286868  0.84050827  0.14754687     0.11800
H219        H  0.64230461  0.73410273  0.12749921     0.11800
H220        H  0.48444765  0.78466338  0.02172357     0.11800
C221        C  0.69324773  0.01559855  0.08470825    -0.14300
C222        C  0.67198434  0.95604498  0.07992016     0.07900
C223        C  0.71230686  0.91212151  0.05487446    -0.14300
C224        C  0.77314778  0.92498949  0.04460236    -0.14300
C225        C  0.79463970  0.98310806  0.05447511     0.07900
C226        C  0.75363357  0.02890381  0.07216466    -0.14300
H227        H  0.66345204  0.05156114  0.10085306     0.11800
H228        H  0.69814373  0.86734472  0.04314860     0.11800
H229        H  0.80343371  0.88951227  0.02822107     0.11800
H230        H  0.76888363  0.07454218  0.07874742     0.11800
C231        C  0.46537087  0.33217687  0.41052169    -0.14300
C232        C  0.45367951  0.37284387  0.45930845     0.07900
C233        C  0.44729134  0.34797734  0.51795965    -0.14300
C234        C  0.45756668  0.28659977  0.52818027    -0.14300
C235        C  0.47441623  0.24805363  0.48006691     0.07900
C236        C  0.47750304  0.27115796  0.42112438    -0.14300
H237        H  0.46450610  0.34643355  0.36365894     0.11800
H238        H  0.43555890  0.37661623  0.55648790     0.11800
H239        H  0.45396427  0.26953152  0.57404507     0.11800
H240        H  0.48814771  0.24162041  0.38292326     0.11800
C241        C  0.32896309  0.43016070  0.42500251    -0.14300
C242        C  0.37407422  0.45061669  0.46591453     0.07900
C243        C  0.35479529  0.47300281  0.52338012    -0.14300
C244        C  0.29324503  0.48070966  0.53633843    -0.14300
C245        C  0.24940495  0.46680581  0.49225481     0.07900
C246        C  0.26748588  0.44068089  0.43681697    -0.14300
H247        H  0.34153667  0.40841869  0.38244612     0.11800
H248        H  0.38698640  0.48433080  0.55896562     0.11800
H249        H  0.27992403  0.49955721  0.58005165     0.11800
H250        H  0.23396393  0.42817095  0.40279953     0.11800
C251        C  0.51464199  0.44781995  0.35949868    -0.14300
C252        C  0.45731352  0.46233872  0.38464326     0.07900
C253        C  0.41788451  0.49956408  0.34950946    -0.14300
C254        C  0.43128677  0.51353941  0.28910270    -0.14300
C255        C  0.48494061  0.49180358  0.26209119     0.07900
C256        C  0.52731374  0.46021495  0.29848816    -0.14300
H257        H  0.54844204  0.42350401  0.38629279     0.11800
H258        H  0.37640744  0.51838540  0.36819738     0.11800
H259        H  0.39875500  0.54016940  0.26299859     0.11800
H260        H  0.57027083  0.44492814  0.27972392     0.11800
C261        C  0.08650642  0.51329844  0.01625328    -0.14300
C262        C  0.06268863  0.56540555  0.98801308     0.07900
C263        C  0.99983962  0.57632093  0.99197764    -0.14300
C264        C  0.96379038  0.54121521  0.02867634    -0.14300
C265        C  0.98710782  0.48859048  0.05734011     0.07900
C266        C  0.04980768  0.47622724  0.05030044    -0.14300
H267        H  0.13365255  0.49976238  0.01149758     0.11800
H268        H  0.97897828  0.61445663  0.96897391     0.11800
H269        H  0.91767852  0.55716003  0.03500051     0.11800
H270        H  0.07228288  0.43847967  0.07127071     0.11800
C271        C  0.19327618  0.60189115  0.02047691    -0.14300
C272        C  0.17019338  0.59568047  0.96040042     0.07900
C273        C  0.21200546  0.58320667  0.91342877    -0.14300
C274        C  0.27294493  0.57126972  0.92683545    -0.14300
C275        C  0.29459475  0.57425000  0.98707754     0.07900
C276        C  0.25457026  0.59105243  0.03368235    -0.14300
H277        H  0.16317773  0.61384034  0.05757002     0.11800
H278        H  0.19864589  0.58325486  0.86596911     0.11800
H279        H  0.30347222  0.56060150  0.88972017     0.11800
H280        H  0.27035999  0.59460393  0.08046770     0.11800
C281        C  0.04703976  0.63175885  0.84584937    -0.14300
C282        C  0.08183194  0.59161935  0.88235576     0.07900
C283        C  0.09509055  0.53387451  0.85785638    -0.14300
C284        C  0.08248768  0.52027996  0.79683126    -0.14300
C285        C  0.05343523  0.56297356  0.75922051     0.07900
C286        C  0.03378649  0.61790904  0.78502634    -0.14300
H287        H  0.02968453  0.67418202  0.86362371     0.11800
H288        H  0.11819542  0.50016539  0.88538964     0.11800
H289        H  0.09638790  0.47657414  0.77891837     0.11800
H290        H  0.00908570  0.65085878  0.75791443     0.11800
C291        C  0.11915016  0.71779559  0.92670293    -0.14300
C292        C  0.09219256  0.67446911  0.96397029     0.07900
C293        C  0.06149875  0.69539604  0.01642521    -0.14300
C294        C  0.05148475  0.75673723  0.02660401    -0.14300
C295        C  0.07372079  0.79932443  0.98610740     0.07900
C296        C  0.10911759  0.77932237  0.93689572    -0.14300
H297        H  0.14630391  0.70365399  0.88800441     0.11800
H298        H  0.04545665  0.66500908  0.05045137     0.11800
H299        H  0.02616870  0.77072913  0.06657177     0.11800
H300        H  0.12845921  0.81105989  0.90587782     0.11800
C301        C  0.01930922  0.08259479  0.51241515    -0.14300
C302        C  0.98815408  0.06220138  0.56390240     0.07900
C303        C  0.99986787  0.00159119  0.58043800    -0.14300
C304        C  0.03746927  0.96333001  0.54602707    -0.14300
C305        C  0.06314731  0.98228349  0.49095252     0.07900
C306        C  0.05517923  0.04379221  0.47694016    -0.14300
H307        H  0.01793265  0.12866775  0.49827927     0.11800
H308        H  0.98116957  0.98356160  0.62168085     0.11800
H309        H  0.04690616  0.91894651  0.56392410     0.11800
H310        H  0.07741172  0.06379245  0.43912338     0.11800
C311        C  0.95172458  0.26005787  0.52652802    -0.14300
C312        C  0.98148613  0.29576423  0.56992817     0.07900
C313        C  0.99992459  0.26992761  0.62519748    -0.14300
C314        C  0.98871631  0.20954923  0.63712784    -0.14300
C315        C  0.96021536  0.17205367  0.59317627     0.07900
C316        C  0.94164590  0.19936749  0.53776006    -0.14300
H317        H  0.93685844  0.27885723  0.48341791     0.11800
H318        H  0.02218225  0.29683458  0.65992885     0.11800
H319        H  0.00282771  0.19346718  0.68133393     0.11800
H320        H  0.91882895  0.17322473  0.50281415     0.11800
C321        C  0.79607146  0.02114639  0.56970664    -0.14300
C322        C  0.75361286  0.06855611  0.56595186     0.07900
C323        C  0.77266387  0.12739327  0.57608157    -0.14300
C324        C  0.83352574  0.13864558  0.58957350    -0.14300
C325        C  0.87838983  0.09174431  0.58933623     0.07900
C326        C  0.85728551  0.03242441  0.58100961    -0.14300
H327        H  0.78188872  0.97510828  0.56335621     0.11800
H328        H  0.74000560  0.16452060  0.57573443     0.11800
H329        H  0.84459161  0.18442957  0.60149446     0.11800
H330        H  0.88700642  0.99367410  0.58367652     0.11800
C331        C  0.02004001  0.07961029  0.69368115    -0.14300
C332        C  0.95968248  0.08930139  0.67259328     0.07900
C333        C  0.91291012  0.08750956  0.71602337    -0.14300
C334        C  0.92577094  0.07540113  0.77708133    -0.14300
C335        C  0.98556682  0.06431595  0.79696341     0.07900
C336        C  0.03263290  0.06625164  0.75469237    -0.14300
H337        H  0.05772738  0.08275875  0.66269089     0.11800
H338        H  0.86603617  0.09638649  0.70376876     0.11800
H339        H  0.88857351  0.07460114  0.80892765     0.11800
H340        H  0.07931503  0.05900263  0.76909731     0.11800
C341        C  0.50530062  0.58186079  0.53092687    -0.14300
C342        C  0.55585074  0.55963613  0.56428887     0.07900
C343        C  0.56580611  0.49662801  0.56439232    -0.14300
C344        C  0.53134100  0.45834929  0.52748739    -0.14300
C345        C  0.48230216  0.48105102  0.49224522     0.07900
C346        C  0.47052266  0.54367024  0.49454615    -0.14300
H347        H  0.49137272  0.62869550  0.53283206     0.11800
H348        H  0.60276642  0.47725263  0.59109749     0.11800
H349        H  0.54453495  0.41131871  0.52616189     0.11800
H350        H  0.43301602  0.56309371  0.46866348     0.11800
C351        C  0.57840637  0.71048459  0.64155747    -0.14300
C352        C  0.58520299  0.66880309  0.59265863     0.07900
C353        C  0.58649388  0.69231171  0.53311996    -0.14300
C354        C  0.57520086  0.75342137  0.52244660    -0.14300
C355        C  0.56629762  0.79382251  0.57121221     0.07900
C356        C  0.56932636  0.77200627  0.63087448    -0.14300
H357        H  0.58165478  0.69652355  0.68851377     0.11800
H358        H  0.59500075  0.66274327  0.49448498     0.11800
H359        H  0.57466306  0.76932879  0.47593406     0.11800
H360        H  0.56395189  0.80248098  0.66935853     0.11800
C361        C  0.68435604  0.55665035  0.53246082    -0.14300
C362        C  0.66594411  0.59172076  0.58350689     0.07900
C363        C  0.71152544  0.62297078  0.61571882    -0.14300
C364        C  0.77286925  0.61348732  0.60263836    -0.14300
C365        C  0.79063801  0.57366559  0.55577118     0.07900
C366        C  0.74570428  0.54667804  0.51980409    -0.14300
H367        H  0.65207861  0.53664968  0.50145922     0.11800
H368        H  0.69956518  0.65306107  0.65302450     0.11800
H369        H  0.80641027  0.63614560  0.63041992     0.11800
H370        H  0.75794531  0.51772527  0.48166851     0.11800
C371        C  0.63284617  0.55793560  0.70858254    -0.14300
C372        C  0.58742721  0.58277623  0.66970981     0.07900
C373        C  0.52846887  0.59053703  0.69377489    -0.14300
C374        C  0.51654629  0.57825447  0.75483023    -0.14300
C375        C  0.56334936  0.55861239  0.79389398     0.07900
C376        C  0.62133045  0.54789353  0.77021365    -0.14300
H377        H  0.67754080  0.54599164  0.69237515     0.11800
H378        H  0.49175662  0.60774458  0.66530372     0.11800
H379        H  0.47114522  0.58594231  0.77203967     0.11800
H380        H  0.65757631  0.53068988  0.79929947     0.11800
loop_ 
_geom_bond_atom_site_label_1 
_geom_bond_atom_site_label_2 
_geom_bond_distance 
_geom_bond_site_symmetry_2 
_ccdc_geom_bond_type 
C1          C342   1.557       .  S
C1          C352   1.555       .  S
C1          C362   1.555       .  S
C1          C372   1.555       .  S
C2          C302   1.570       .  S
C2          C315   1.567       .  S
C2          C325   1.568       .  S
C2          C332   1.555       .  S
C3          C262   1.547       .  S
C3          C272   1.547       .  S
C3          C282   1.550       .  S
C3          C292   1.548       .  S
C4          C232   1.555       .  S
C4          C242   1.551       .  S
C4          C252   1.560       .  S
C4          C345   1.551       .  S
C5          C195   1.554       .  S
C5          C202   1.555       .  S
C5          C212   1.559       .  S
C5          C222   1.562       .  S
C6          C162   1.550       .  S
C6          C172   1.565       .  S
C6          C182   1.569       .  S
C6          C265   1.566       .  S
C7          C132   1.555       .  S
C7          C142   1.554       .  S
C7          C155   1.558       .  S
C7          C192   1.555       .  S
C8          C102   1.555       .  S
C8          C112   1.572       .  S
C8          C122   1.569       .  S
C8          C305   1.564       .  S
O9           C25   1.276       .  A
O9          Zn15   2.031       .  S
C10          O26   1.278   1_655  A
C10          O23   1.273       .  A
C10         C335   1.476       .  S
O11          C24   1.276       .  A
O11         Cd18   2.080       .  S
O12          C30   1.273       .  A
O12         Cd21   2.045   1_554  S
O13          C27   1.275       .  A
O13         Cd17   2.080       .  S
O14          C25   1.272   1_554  A
O14         Cd17   2.041   1_455  S
Zn15         O26   2.038   1_565  S
Zn15         O28   2.035   1_565  S
Zn15         O20   1.956   1_566  S
O16          C27   1.273   1_545  A
O16         Cd21   2.075   1_554  S
Cd17         O19   2.054   1_655  S
Cd17         O20   1.989   1_665  S
Cd18         O22   2.078       .  S
Cd18         O31   2.076       .  S
Cd18         O20   2.007       .  S
O19          C29   1.274       .  A
O20         Cd21   1.991   1_454  S
Cd21         O23   2.050       .  S
O22          C29   1.277   1_545  A
C24          O28   1.276   1_554  A
C24         C152   1.484   1_554  S
C25         C295   1.478       .  S
C27         C225   1.478       .  S
C29         C125   1.480       .  S
C30          O31   1.276   1_655  A
C30         C185   1.477       .  S
O32          C48   1.275   1_545  A
O32         Zn38   2.021       .  S
C33          O49   1.273       .  A
C33          O46   1.276       .  A
C33         C145   1.475       .  S
O34          C47   1.276       .  A
O34         Cd41   2.078       .  S
O35          C53   1.275       .  A
O35         Cd44   2.070   1_545  S
O36          C50   1.275       .  A
O36         Cd40   2.068       .  S
O37          C48   1.274       .  A
O37         Cd40   2.062       .  S
Zn38         O49   2.011       .  S
Zn38         O51   2.020       .  S
Zn38         O43   1.948       .  S
O39          C50   1.277       .  A
O39         Cd44   2.084       .  S
Cd40         O42   2.059       .  S
Cd40         O43   1.994   1_565  S
Cd41         O45   2.091       .  S
Cd41         O54   2.082       .  S
Cd41         O43   2.004       .  S
O42          C52   1.273       .  A
O43         Cd44   2.000   1_545  S
Cd44         O46   2.079   1_565  S
O45          C52   1.277   1_545  A
C47          O51   1.274       .  A
C47         C235   1.474       .  S
C48         C105   1.477       .  S
C50         C355   1.479       .  S
C52         C205   1.477       .  S
C53          O54   1.276       .  A
C53         C322   1.472       .  S
O55          C71   1.271       .  A
O55         Zn61   2.003   1_554  S
C56          O72   1.275       .  A
C56          O69   1.272       .  A
C56         C375   1.474       .  S
O57          C70   1.274       .  A
O57         Cd64   2.071       .  S
O58          C76   1.273   1_556  A
O58         Cd67   2.048       .  S
O59          C73   1.278   1_554  A
O59         Cd63   2.087       .  S
O60          C71   1.273       .  A
O60         Cd63   2.059       .  S
Zn61         O72   2.034       .  S
Zn61         O74   2.028   1_556  S
Zn61         O66   1.952   1_556  S
O62          C73   1.275       .  A
O62         Cd67   2.066       .  S
Cd63         O65   2.084       .  S
Cd63         O66   2.001       .  S
Cd64         O68   2.084       .  S
Cd64         O77   2.073       .  S
Cd64         O66   2.006       .  S
O65          C75   1.276       .  A
O66         Cd67   1.997   1_554  S
Cd67         O69   2.068       .  S
O68          C75   1.276       .  A
C70          O74   1.275       .  A
C70         C215   1.467       .  S
C71         C175   1.459       .  S
C73         C135   1.484       .  S
C75         C255   1.486       .  S
C76          O77   1.275       .  A
C76         C275   1.472   1_554  S
O78          C94   1.275       .  A
O78         Zn84   2.028   1_455  S
C79          O95   1.274       .  A
C79          O92   1.275       .  A
C79         C365   1.480       .  S
O80          C93   1.274       .  A
O80         Cd87   2.061       .  S
O81          C99   1.274       .  A
O81         Cd90   2.067       .  S
O82          C96   1.274   1_455  A
O82         Cd86   2.065       .  S
O83          C94   1.275       .  A
O83         Cd86   2.069       .  S
Zn84         O95   2.015       .  S
Zn84         O97   2.024   1_655  S
Zn84         O89   1.945   1_655  S
O85          C96   1.274       .  A
O85         Cd90   2.060       .  S
Cd86         O88   2.061       .  S
Cd86         O89   1.996       .  S
Cd87         O91   2.078       .  S
Cd87        O100   2.072       .  S
Cd87         O89   2.001       .  S
O88          C98   1.273       .  A
O89         Cd90   1.994   1_455  S
Cd90         O92   2.070       .  S
O91          C98   1.275       .  A
C93          O97   1.276       .  A
C93         C285   1.480       .  S
C94         C115   1.471       .  S
C96         C165   1.475       .  S
C98         C245   1.468       .  S
C99         O100   1.275   1_655  A
C99         C312   1.477       .  S
C101        C102   1.415       .  A
C101        C106   1.397       .  A
C101        H107   1.080   1_565  S
C102        C103   1.415       .  A
C103        C104   1.394       .  A
C103        H108   1.083       .  S
C104        C105   1.402       .  A
C104        H109   1.083       .  S
C105        C106   1.402       .  A
C106        H110   1.083   1_565  S
C111        C112   1.420       .  A
C111        C116   1.397       .  A
C111        H117   1.075       .  S
C112        C113   1.419       .  A
C113        C114   1.399       .  A
C113        H118   1.083   1_455  S
C114        C115   1.398       .  A
C114        H119   1.083   1_455  S
C115        C116   1.396       .  A
C116        H120   1.084       .  S
C121        C122   1.415       .  A
C121        C126   1.395       .  A
C121        H127   1.072       .  S
C122        C123   1.421   1_565  A
C123        C124   1.396       .  A
C123        H128   1.082       .  S
C124        C125   1.399   1_545  A
C124        H129   1.083       .  S
C125        C126   1.401       .  A
C126        H130   1.083       .  S
C131        C132   1.413       .  A
C131        C136   1.397       .  A
C131        H137   1.083       .  S
C132        C133   1.416       .  A
C133        C134   1.399   1_556  A
C133        H138   1.079   1_556  S
C134        C135   1.403   1_554  A
C134        H139   1.083       .  S
C135        C136   1.404       .  A
C136        H140   1.083       .  S
C141        C142   1.414       .  A
C141        C146   1.397       .  A
C141        H147   1.083       .  S
C142        C143   1.415       .  A
C143        C144   1.397       .  A
C143        H148   1.080       .  S
C144        C145   1.401       .  A
C144        H149   1.083       .  S
C145        C146   1.401       .  A
C146        H150   1.083       .  S
C151        C152   1.403       .  A
C151        C156   1.401       .  A
C151        H157   1.083   1_545  S
C152        C153   1.403   1_556  A
C153        C154   1.400       .  A
C153        H158   1.083       .  S
C154        C155   1.416   1_554  A
C154        H159   1.080       .  S
C155        C156   1.414       .  A
C156        H160   1.083       .  S
C161        C162   1.414       .  A
C161        C166   1.392       .  A
C161        H167   1.083       .  S
C162        C163   1.414       .  A
C163        C164   1.397   1_655  A
C163        H168   1.081   1_655  S
C164        C165   1.403   1_455  A
C164        H169   1.083       .  S
C165        C166   1.401       .  A
C166        H170   1.083       .  S
C171        C172   1.419       .  A
C171        C176   1.395       .  A
C171        H177   1.084   1_554  S
C172        C173   1.419       .  A
C173        C174   1.392       .  A
C173        H178   1.077       .  S
C174        C175   1.394       .  A
C174        H179   1.084       .  S
C175        C176   1.396       .  A
C176        H180   1.083   1_554  S
C181        C182   1.417       .  A
C181        C186   1.391       .  A
C181        H187   1.071       .  S
C182        C183   1.421   1_655  A
C183        C184   1.397       .  A
C183        H188   1.083       .  S
C184        C185   1.399   1_455  A
C184        H189   1.083       .  S
C185        C186   1.399       .  A
C186        H190   1.083       .  S
C191        C192   1.414       .  A
C191        C196   1.396   1_545  A
C191        H197   1.079       .  S
C192        C193   1.409   1_556  A
C193        C194   1.396       .  A
C193        H198   1.083       .  S
C194        C195   1.413   1_545  A
C194        H199   1.079       .  S
C195        C196   1.409   1_554  A
C196        H200   1.084       .  S
C201        C202   1.414       .  A
C201        C206   1.395       .  A
C201        H207   1.083       .  S
C202        C203   1.417       .  A
C203        C204   1.401       .  A
C203        H208   1.078       .  S
C204        C205   1.401       .  A
C204        H209   1.083   1_565  S
C205        C206   1.401       .  A
C206        H210   1.083       .  S
C211        C212   1.419       .  A
C211        C216   1.396       .  A
C211        H217   1.079       .  S
C212        C213   1.414       .  A
C213        C214   1.399       .  A
C213        H218   1.083       .  S
C214        C215   1.399       .  A
C214        H219   1.083       .  S
C215        C216   1.396       .  A
C216        H220   1.084       .  S
C221        C222   1.416   1_545  A
C221        C226   1.401       .  A
C221        H227   1.083       .  S
C222        C223   1.417       .  A
C223        C224   1.399       .  A
C223        H228   1.077       .  S
C224        C225   1.399       .  A
C224        H229   1.083       .  S
C225        C226   1.401   1_565  A
C226        H230   1.083       .  S
C231        C232   1.416       .  A
C231        C236   1.398       .  A
C231        H237   1.079       .  S
C232        C233   1.415       .  A
C233        C234   1.398       .  A
C233        H238   1.083       .  S
C234        C235   1.401       .  A
C234        H239   1.083       .  S
C235        C236   1.399       .  A
C236        H240   1.084       .  S
C241        C242   1.412       .  A
C241        C246   1.397       .  A
C241        H247   1.083       .  S
C242        C243   1.417       .  A
C243        C244   1.396       .  A
C243        H248   1.081       .  S
C244        C245   1.398       .  A
C244        H249   1.083       .  S
C245        C246   1.400       .  A
C246        H250   1.084       .  S
C251        C252   1.414       .  A
C251        C256   1.401       .  A
C251        H257   1.083       .  S
C252        C253   1.415       .  A
C253        C254   1.400       .  A
C253        H258   1.080       .  S
C254        C255   1.403       .  A
C254        H259   1.083       .  S
C255        C256   1.404       .  A
C256        H260   1.083       .  S
C261        C262   1.408   1_554  A
C261        C266   1.395       .  A
C261        H267   1.082       .  S
C262        C263   1.405   1_455  A
C263        C264   1.393   1_556  A
C263        H268   1.083       .  S
C264        C265   1.418       .  A
C264        H269   1.079       .  S
C265        C266   1.414   1_655  A
C266        H270   1.071       .  S
C271        C272   1.415   1_554  A
C271        C276   1.396       .  A
C271        H277   1.083       .  S
C272        C273   1.411       .  A
C273        C274   1.393       .  A
C273        H278   1.079       .  S
C274        C275   1.402       .  A
C274        H279   1.083       .  S
C275        C276   1.400   1_556  A
C276        H280   1.083       .  S
C281        C282   1.414       .  A
C281        C286   1.396       .  A
C281        H287   1.080       .  S
C282        C283   1.412       .  A
C283        C284   1.396       .  A
C283        H288   1.083       .  S
C284        C285   1.404       .  A
C284        H289   1.083       .  S
C285        C286   1.402       .  A
C286        H290   1.083       .  S
C291        C292   1.414       .  A
C291        C296   1.397       .  A
C291        H297   1.084       .  S
C292        C293   1.411   1_556  A
C293        C294   1.392       .  A
C293        H298   1.079       .  S
C294        C295   1.404   1_554  A
C294        H299   1.084       .  S
C295        C296   1.402       .  A
C296        H300   1.082       .  S
C301        C302   1.412   1_455  A
C301        C306   1.394       .  A
C301        H307   1.073       .  S
C302        C303   1.416       .  A
C303        C304   1.396   1_645  A
C303        H308   1.082   1_545  S
C304        C305   1.412       .  A
C304        H309   1.081       .  S
C305        C306   1.411   1_565  A
C306        H310   1.073       .  S
C311        C312   1.400       .  A
C311        C316   1.396       .  A
C311        H317   1.083       .  S
C312        C313   1.400       .  A
C313        C314   1.397       .  A
C313        H318   1.084   1_655  S
C314        C315   1.419       .  A
C314        H319   1.078   1_655  S
C315        C316   1.417       .  A
C316        H320   1.084       .  S
C321        C322   1.397       .  A
C321        C326   1.397       .  A
C321        H327   1.084   1_545  S
C322        C323   1.397       .  A
C323        C324   1.399       .  A
C323        H328   1.084       .  S
C324        C325   1.422       .  A
C324        H329   1.080       .  S
C325        C326   1.417       .  A
C326        H330   1.073   1_545  S
C331        C332   1.417   1_455  A
C331        C336   1.398       .  A
C331        H337   1.083       .  S
C332        C333   1.413       .  A
C333        C334   1.394       .  A
C333        H338   1.080       .  S
C334        C335   1.402       .  A
C334        H339   1.083       .  S
C335        C336   1.400   1_655  A
C336        H340   1.083       .  S
C341        C342   1.410       .  A
C341        C346   1.395       .  A
C341        H347   1.079       .  S
C342        C343   1.413       .  A
C343        C344   1.399       .  A
C343        H348   1.083       .  S
C344        C345   1.410       .  A
C344        H349   1.079       .  S
C345        C346   1.411       .  A
C346        H350   1.083       .  S
C351        C352   1.417       .  A
C351        C356   1.399       .  A
C351        H357   1.080       .  S
C352        C353   1.413       .  A
C353        C354   1.397       .  A
C353        H358   1.083       .  S
C354        C355   1.402       .  A
C354        H359   1.083       .  S
C355        C356   1.401       .  A
C356        H360   1.083       .  S
C361        C362   1.416       .  A
C361        C366   1.396       .  A
C361        H367   1.079       .  S
C362        C363   1.413       .  A
C363        C364   1.397       .  A
C363        H368   1.083       .  S
C364        C365   1.403       .  A
C364        H369   1.083       .  S
C365        C366   1.402       .  A
C366        H370   1.083       .  S
C371        C372   1.416       .  A
C371        C376   1.399       .  A
C371        H377   1.078       .  S
C372        C373   1.415       .  A
C373        C374   1.398       .  A
C373        H378   1.083       .  S
C374        C375   1.400       .  A
C374        H379   1.083       .  S
C375        C376   1.400       .  A
C376        H380   1.083       .  S
