geometry optimzed in LAMMPS
_audit_creation_date              2020-11-30 
_audit_creation_method            'lammps2cif' 
_symmetry_space_group_name_H-M    'P1' 
_symmetry_Int_Tables_number       1 
_symmetry_cell_setting            triclinic 
loop_ 
_symmetry_equiv_pos_as_xyz 
  x,y,z 
_cell_length_a                    52.21678826 
_cell_length_b                    52.45366456266614 
_cell_length_c                    52.3659407031944 
_cell_angle_alpha                 89.80014485662194 
_cell_angle_beta                  89.85912109932595 
_cell_angle_gamma                 89.87707896247798 
loop_ 
_atom_site_label 
_atom_site_type_symbol 
_atom_site_fract_x 
_atom_site_fract_y 
_atom_site_fract_z 
_atom_site_charge 
O1          O  0.31880985  0.86843397  0.46829308    -0.55300
C2          C  0.36014904  0.90510043  0.52994864     0.77300
O3          O  0.36045782  0.82304734  0.52681480    -0.56500
C4          C  0.32002008  0.84628373  0.45867668     0.77300
C5          C  0.40201613  0.86192430  0.46790582     0.79600
Cd6        Cd  0.35578682  0.86066802  0.49789354     1.37500
O7          O  0.34282777  0.90378283  0.51301788    -0.55300
O8          O  0.38521867  0.87935776  0.46694611    -0.54200
C9          C  0.33817395  0.82570374  0.53614952     0.79600
O10         O  0.39797875  0.84392955  0.48367185    -0.56500
O11         O  0.37574760  0.88660618  0.53095902    -0.55000
O12         O  0.33764079  0.83179828  0.46660052    -0.55000
O13         O  0.32497931  0.84431677  0.52830510    -0.54100
O14         O  0.15720261  0.70082257  0.52196312    -0.55300
C15         C  0.12017884  0.66066835  0.46231265     0.77300
O16         O  0.20305998  0.65875457  0.46353825    -0.56500
C17         C  0.17941030  0.70003785  0.53172034     0.77300
C18         C  0.16371803  0.61913358  0.52663407     0.79600
Cd19       Cd  0.16570032  0.66368848  0.49360027     1.37500
O20         O  0.12260226  0.67789375  0.47907368    -0.55300
O21         O  0.14752662  0.63710736  0.52742125    -0.54200
C22         C  0.20214286  0.68188566  0.45633964     0.79600
O23         O  0.18093366  0.62094639  0.50953117    -0.56500
O24         O  0.13836417  0.64472771  0.46068124    -0.55000
O25         O  0.19425412  0.68245013  0.52444686    -0.55000
O26         O  0.18471467  0.69560405  0.46584674    -0.54100
O27         O  0.29905172  0.76325397  0.59591883    -0.55300
C28         C  0.26461570  0.71995533  0.65090146     0.77300
O29         O  0.23140489  0.79666057  0.63745864    -0.56500
C30         C  0.29517264  0.78424667  0.58462470     0.77300
C31         C  0.21861579  0.74232875  0.58171321     0.79600
Cd32       Cd  0.25627767  0.76202805  0.61646225     1.37500
O33         O  0.28193614  0.72709591  0.63555327    -0.55300
O34         O  0.24132857  0.73406055  0.58244570    -0.54200
C35         C  0.24937759  0.80241620  0.65256962     0.79600
O36         O  0.21295268  0.76038209  0.59665847    -0.56500
O37         O  0.24361231  0.73201215  0.65000205    -0.55000
O38         O  0.27350437  0.79458340  0.58766336    -0.55000
O39         O  0.26977908  0.78950656  0.65079209    -0.54100
O40         O  0.25992833  0.72386336  0.39272822    -0.55300
C41         C  0.29633296  0.76819482  0.33622437     0.77300
O42         O  0.21753815  0.78857476  0.35802559    -0.56500
C43         C  0.24118345  0.72684306  0.40782880     0.77300
C44         C  0.27798945  0.80646282  0.40834616     0.79600
Cd45       Cd  0.25717390  0.76808380  0.37487447     1.37500
O46         O  0.29426043  0.74943659  0.35145883    -0.55300
O47         O  0.28870598  0.78516941  0.40468987    -0.54200
C48         C  0.21321170  0.77104356  0.34200767     0.79600
O49         O  0.25699138  0.81039677  0.39690876    -0.56500
O50         O  0.28046670  0.78620213  0.33893806    -0.55000
O51         O  0.23071246  0.74857544  0.40813439    -0.55000
O52         O  0.22881763  0.75256635  0.34173699    -0.54100
O53         O  0.52853170  0.89890647  0.32766404    -0.55300
C54         C  0.47196542  0.84303108  0.31059465     0.77300
O55         O  0.54300476  0.82274392  0.35175789    -0.56500
C56         C  0.54379126  0.90268561  0.34608986     0.77300
C57         C  0.48079580  0.86054374  0.39062717     0.79600
Cd58       Cd  0.51162228  0.85817482  0.34500763     1.37500
O59         O  0.47948984  0.86602652  0.31053587    -0.55300
O60         O  0.48063729  0.87785501  0.37371129    -0.54200
C61         C  0.54990180  0.82278098  0.32849156     0.79600
O62         O  0.49618098  0.84211119  0.38704640    -0.56500
O63         O  0.48232626  0.82799494  0.32636870    -0.55000
O64         O  0.54314255  0.88655947  0.36412647    -0.55000
O65         O  0.53955176  0.83892894  0.31387530    -0.54100
O66         O  0.49398102  0.67615817  0.11210018    -0.55300
C67         C  0.54888616  0.69855311  0.16865796     0.77300
O68         O  0.48218327  0.65696938  0.19349991    -0.56500
C69         C  0.47615514  0.65973046  0.11164840     0.77300
C70         C  0.54147553  0.61736430  0.15153023     0.79600
Cd71       Cd  0.50999721  0.66273331  0.15498893     1.37500
O72         O  0.53849379  0.70017543  0.14682445    -0.55300
O73         O  0.54141926  0.63470306  0.13464262    -0.54200
C74         C  0.47350255  0.67956467  0.19234522     0.79600
O75         O  0.52582282  0.62021529  0.16989920    -0.56500
O76         O  0.54183156  0.68051398  0.18302447    -0.55000
O77         O  0.47475303  0.64484196  0.13068341    -0.55000
O78         O  0.48132044  0.69347802  0.17423347    -0.54100
O79         O  0.40671745  0.80566989  0.25265143    -0.55300
C80         C  0.35737006  0.76790074  0.20732653     0.77300
O81         O  0.41167345  0.71877596  0.25347835    -0.56500
C82         C  0.42193260  0.80127729  0.27087016     0.77300
C83         C  0.35275416  0.75436859  0.29131463     0.79600
Cd84       Cd  0.38997646  0.76125646  0.25103612     1.37500
O85         O  0.37415970  0.78435853  0.21274136    -0.55300
O86         O  0.35431741  0.77460093  0.27819712    -0.54200
C87         C  0.42409887  0.72185451  0.23294252     0.79600
O88         O  0.36863460  0.73690422  0.28603196    -0.56500
O89         O  0.35593783  0.74868163  0.22194616    -0.55000
O90         O  0.42262563  0.77876243  0.27945739    -0.55000
O91         O  0.42109875  0.74279698  0.22136835    -0.54100
O92         O  0.64970489  0.72506457  0.27479848    -0.55300
C93         C  0.59879555  0.78139964  0.28611914     0.77300
O94         O  0.65562953  0.79211037  0.22174667    -0.56500
C95         C  0.66490757  0.71721874  0.25769971     0.77300
C96         C  0.59878942  0.73981863  0.20911720     0.79600
Cd97       Cd  0.63205706  0.76000083  0.24794446     1.37500
O98         O  0.61239457  0.76204579  0.29097896    -0.55300
O99         O  0.60109775  0.72956848  0.23084743    -0.54200
C100        C  0.66917358  0.80004272  0.24006376     0.79600
O101        O  0.61142259  0.75997309  0.20504741    -0.56500
O102        O  0.59997369  0.79034872  0.26370334    -0.55000
O103        O  0.66468970  0.72914212  0.23665949    -0.55000
O104        O  0.66548384  0.78951760  0.26151481    -0.54100
O105        O  0.62372388  0.52333330  0.16719297    -0.55300
C106        C  0.68306956  0.46878027  0.18551231     0.77300
O107        O  0.68305429  0.49455554  0.10937005    -0.56500
C108        C  0.62104970  0.54041112  0.15014330     0.77300
C109        C  0.70182145  0.54690323  0.16800612     0.79600
Cd110      Cd  0.66656801  0.50885934  0.15156850     1.37500
O111        O  0.65987928  0.47609099  0.18592008    -0.55300
O112        O  0.68536659  0.53692411  0.18263373    -0.54200
C113        C  0.66458323  0.47939628  0.10543586     0.79600
O114        O  0.70209373  0.53977828  0.14487336    -0.56500
O115        O  0.69780560  0.47969364  0.16979245    -0.55000
O116        O  0.63888448  0.54210803  0.13380100    -0.55000
O117        O  0.64707290  0.47898520  0.12218440    -0.54100
O118        O  0.85842382  0.48209993  0.30608384    -0.55300
C119        C  0.89303895  0.54277175  0.34567493     0.77300
O120        O  0.81150613  0.53724008  0.35281363    -0.56500
C121        C  0.83680012  0.47120036  0.30703475     0.77300
C122        C  0.85298937  0.47771357  0.38879396     0.79600
Cd123      Cd  0.84929020  0.50945229  0.34388459     1.37500
O124        O  0.89108696  0.52598421  0.32842032    -0.55300
O125        O  0.87011298  0.47819277  0.37163927    -0.54200
C126        C  0.81104348  0.54613167  0.33028271     0.79600
O127        O  0.83429751  0.49290554  0.38582664    -0.56500
O128        O  0.87523711  0.54345102  0.36210921    -0.55000
O129        O  0.82180653  0.47760909  0.32484565    -0.55000
O130        O  0.82786922  0.53821941  0.31487826    -0.54100
O131        O  0.75213049  0.61084671  0.29245415    -0.55300
C132        C  0.71757116  0.66789855  0.24651414     0.77300
O133        O  0.79636026  0.65124601  0.23061531    -0.56500
C134        C  0.77174529  0.59681779  0.28989863     0.77300
C135        C  0.74070423  0.59699146  0.21019831     0.79600
Cd136      Cd  0.75754336  0.63085416  0.24947068     1.37500
O137        O  0.71980438  0.65435602  0.26653645    -0.55300
O138        O  0.72755002  0.60147238  0.22996839    -0.54200
C139        C  0.79961579  0.66598687  0.24948313     0.79600
O140        O  0.76231984  0.60777549  0.20839305    -0.56500
O141        O  0.73329323  0.66383379  0.22862536    -0.55000
O142        O  0.78389657  0.59835371  0.26907516    -0.55000
O143        O  0.78402913  0.66386408  0.26785418    -0.54100
O144        O  0.72030700  0.40072120  0.24138099    -0.55300
C145        C  0.76515494  0.34708110  0.28326288     0.77300
O146        O  0.78943801  0.36541442  0.20572759    -0.56500
C147        C  0.72487126  0.41661308  0.22367542     0.77300
C148        C  0.80090029  0.41920915  0.26403546     0.79600
Cd149      Cd  0.76525883  0.38383086  0.24245818     1.37500
O150        O  0.74596185  0.36160311  0.27990370    -0.55300
O151        O  0.78014477  0.41325556  0.27492869    -0.54200
C152        C  0.77223123  0.34925891  0.20046973     0.79600
O153        O  0.80560018  0.40899293  0.24264131    -0.56500
O154        O  0.78368256  0.34962630  0.26790070    -0.55000
O155        O  0.74748123  0.41726559  0.21509166    -0.55000
O156        O  0.75231423  0.34960752  0.21429102    -0.54100
O157        O  0.70511471  0.98312498  0.35047980    -0.55300
C158        C  0.66358361  0.04219109  0.38772520     0.77300
O159        O  0.66060955  0.04204538  0.30682706    -0.56500
C160        C  0.70397634  0.97309765  0.32851089     0.77300
C161        C  0.62239570  0.97997536  0.34470070     0.79600
Cd162      Cd  0.66753058  0.01136136  0.34266468     1.37500
O163        O  0.68085798  0.02522002  0.38593823    -0.55300
O164        O  0.63890655  0.98038493  0.36235055    -0.54200
C165        C  0.68342792  0.05024251  0.30762587     0.79600
O166        O  0.62614098  0.99504497  0.32604801    -0.56500
O167        O  0.64821609  0.04408138  0.36915239    -0.55000
O168        O  0.68616309  0.98038435  0.31392895    -0.55000
O169        O  0.69807821  0.04071778  0.32426799    -0.54100
O170        O  0.86380894  0.03486315  0.19089175    -0.55300
C171        C  0.90182655  0.97608907  0.15201878     0.77300
O172        O  0.81988017  0.97583960  0.14679647    -0.56500
C173        C  0.84185714  0.04514125  0.18951947     0.77300
C174        C  0.85899379  0.03886478  0.10788201     0.79600
Cd175      Cd  0.85605552  0.00695479  0.15348487     1.37500
O176        O  0.89877076  0.99249321  0.16950952    -0.55300
O177        O  0.87595025  0.03889155  0.12512554    -0.54200
C178        C  0.81958121  0.96879982  0.17001378     0.79600
O179        O  0.84068819  0.02325760  0.11106331    -0.56500
O180        O  0.88422845  0.97476326  0.13548833    -0.55000
O181        O  0.82747746  0.03840906  0.17141264    -0.55000
O182        O  0.83566148  0.97905464  0.18465308    -0.54100
O183        O  0.76008960  0.90558501  0.21023393    -0.55300
C184        C  0.72231054  0.84827090  0.25442131     0.77300
O185        O  0.80065535  0.86539030  0.27541867    -0.56500
C186        C  0.78079656  0.91791195  0.21261706     0.77300
C187        C  0.74494761  0.92100941  0.29023481     0.79600
Cd188      Cd  0.76326455  0.88492572  0.25333085     1.37500
O189        O  0.72740381  0.86023222  0.23392881    -0.55300
O190        O  0.73479857  0.91836217  0.26853759    -0.54200
C191        C  0.80533798  0.84975396  0.25759781     0.79600
O192        O  0.76429122  0.90728107  0.29523138    -0.56500
O193        O  0.73562379  0.85367809  0.27374246    -0.55000
O194        O  0.79290799  0.91497859  0.23328589    -0.55000
O195        O  0.79089365  0.85083333  0.23825250    -0.54100
O196        O  0.80808511  0.10952379  0.25049621    -0.55300
C197        C  0.77079370  0.16620141  0.29235270     0.77300
O198        O  0.74723389  0.15329132  0.21165610    -0.56500
C199        C  0.80288147  0.09593005  0.23127744     0.77300
C200        C  0.72553642  0.10050490  0.26838121     0.79600
Cd201      Cd  0.76624001  0.13208020  0.24988676     1.37500
O202        O  0.78908588  0.15136459  0.28660531    -0.55300
O203        O  0.74763606  0.10037097  0.27814843    -0.54200
C204        C  0.76637313  0.16773183  0.20811303     0.79600
O205        O  0.72182296  0.11516184  0.24946799    -0.56500
O206        O  0.75085822  0.16482948  0.27873539    -0.55000
O207        O  0.78096082  0.09857264  0.22146822    -0.55000
O208        O  0.78472070  0.16551384  0.22362976    -0.54100
O209        O  0.02905585  0.83919211  0.10907217    -0.55300
C210        C  0.97433041  0.81869461  0.16448683     0.77300
O211        O  0.04104755  0.85974462  0.18950785    -0.56500
C212        C  0.04470580  0.85738725  0.10582340     0.77300
C213        C  0.98197610  0.90015711  0.14987523     0.79600
Cd214      Cd  0.01322715  0.85480542  0.15095823     1.37500
O215        O  0.98278835  0.81939042  0.14178426    -0.55300
O216        O  0.98027055  0.88251149  0.13354184    -0.54200
C217        C  0.05171894  0.83821101  0.18650680     0.79600
O218        O  0.99936014  0.89763548  0.16660323    -0.56500
O219        O  0.98344164  0.83453744  0.18008186    -0.55000
O220        O  0.04447173  0.87473657  0.12258592    -0.55000
O221        O  0.04516229  0.82539025  0.16726733    -0.54100
O222        O  0.11546681  0.79842093  0.24539304    -0.55300
C223        C  0.16761313  0.75397585  0.28751257     0.77300
O224        O  0.10810608  0.71192778  0.24650094    -0.56500
C225        C  0.09977942  0.79453458  0.22742417     0.77300
C226        C  0.16520665  0.74654067  0.20398268     0.79600
Cd227      Cd  0.13106318  0.75334182  0.24650289     1.37500
O228        O  0.15323408  0.77309769  0.28358440    -0.55300
O229        O  0.16427793  0.76679773  0.21699159    -0.54200
C230        C  0.09516073  0.71692028  0.26633097     0.79600
O231        O  0.14980618  0.72898299  0.21028779    -0.56500
O232        O  0.16479712  0.73513921  0.27284898    -0.55000
O233        O  0.09824365  0.77203982  0.21902797    -0.55000
O234        O  0.09839165  0.73853955  0.27638710    -0.54100
O235        O  0.02189823  0.67760898  0.38591629    -0.55300
C236        C  0.96739667  0.69852179  0.32650818     0.77300
O237        O  0.03498270  0.65525859  0.30735406    -0.56500
C238        C  0.03837775  0.65986004  0.38791706     0.77300
C239        C  0.97243470  0.61928609  0.34652459     0.79600
Cd240      Cd  0.00533108  0.66299845  0.34381339     1.37500
O241        O  0.97588373  0.70037763  0.34914622    -0.55300
O242        O  0.97162832  0.63707367  0.36281562    -0.54200
C243        C  0.04333361  0.67796353  0.30747720     0.79600
O244        O  0.98957911  0.62099720  0.32937559    -0.56500
O245        O  0.97595015  0.68052686  0.31299515    -0.55000
O246        O  0.03834513  0.64326791  0.37041324    -0.55000
O247        O  0.03440404  0.69289739  0.32414581    -0.54100
O248        O  0.87173320  0.71601511  0.21693955    -0.55300
C249        C  0.92329023  0.77580681  0.20251123     0.77300
O250        O  0.86570158  0.79144732  0.25933565    -0.56500
C251        C  0.85489353  0.71142776  0.23380356     0.77300
C252        C  0.91957448  0.73742975  0.28114233     0.79600
Cd253      Cd  0.88826828  0.75471412  0.23933296     1.37500
O254        O  0.91023956  0.75626577  0.19705900    -0.55300
O255        O  0.92102458  0.72779122  0.25909701    -0.54200
C256        C  0.85104866  0.79514421  0.24040608     0.79600
O257        O  0.90398162  0.75567622  0.28415772    -0.56500
O258        O  0.92067961  0.78481608  0.22469947    -0.55000
O259        O  0.85402658  0.72650757  0.25257557    -0.55000
O260        O  0.85385458  0.78045671  0.22153532    -0.54100
O261        O  0.33828519  0.61346358  0.98715887    -0.55300
C262        C  0.31604234  0.67479294  0.03848815     0.77300
O263        O  0.39495138  0.67203013  0.01666073    -0.56500
C264        C  0.35533009  0.61180713  0.96987889     0.77300
C265        C  0.33793086  0.69079972  0.96193869     0.79600
Cd266      Cd  0.35256011  0.65650444  0.00184108     1.37500
O267        O  0.31548447  0.65150916  0.03192604    -0.55300
O268        O  0.32288844  0.67439731  0.97129462    -0.54200
C269        C  0.39722885  0.65562264  0.03437443     0.79600
O270        O  0.36050270  0.69164952  0.97083615    -0.56500
O271        O  0.33293733  0.68870637  0.02831150    -0.55000
O272        O  0.37138743  0.62981815  0.96879405    -0.55000
O273        O  0.37948230  0.63927440  0.03616349    -0.54100
O274        O  0.20786684  0.86293664  0.03080406    -0.55300
C275        C  0.16936361  0.89979825  0.96827622     0.77300
O276        O  0.16414145  0.81930838  0.96980728    -0.56500
C277        C  0.20844042  0.83995318  0.03840407     0.77300
C278        C  0.12618934  0.85628078  0.03113861     0.79600
Cd279      Cd  0.17204872  0.85491163  0.00019108     1.37500
O280        O  0.18766076  0.89693521  0.98395675    -0.55300
O281        O  0.14276698  0.87386048  0.03130712    -0.54200
C282        C  0.18673815  0.81994926  0.96089845     0.79600
O283        O  0.13041156  0.83788429  0.01602859    -0.56500
O284        O  0.15234713  0.88265524  0.96845506    -0.55000
O285        O  0.19246627  0.82480458  0.02871813    -0.55000
O286        O  0.20176188  0.83642179  0.96992101    -0.54100
O287        O  0.26614787  0.80173673  0.10404598    -0.55300
C288        C  0.30384866  0.75535145  0.15925549     0.77300
O289        O  0.22382545  0.74071502  0.14406125    -0.56500
C290        C  0.24744946  0.79834977  0.08905777     0.77300
C291        C  0.27850737  0.71872276  0.08874990     0.79600
Cd292      Cd  0.26286632  0.75827226  0.12306995     1.37500
O293        O  0.30133775  0.77511311  0.14541199    -0.55300
O294        O  0.29041943  0.73961127  0.09052773    -0.54200
C295        C  0.22074915  0.76007761  0.15820566     0.79600
O296        O  0.25872697  0.71592235  0.10253531    -0.56500
O297        O  0.28809097  0.73749704  0.15572363    -0.55000
O298        O  0.23681363  0.77673622  0.08944090    -0.55000
O299        O  0.23668093  0.77797840  0.15566791    -0.54100
O300        O  0.21884311  0.76274855  0.89240813    -0.55300
C301        C  0.25246701  0.71444109  0.84155534     0.77300
O302        O  0.29047941  0.78973375  0.85660909    -0.56500
C303        C  0.22560879  0.77841796  0.90938021     0.77300
C304        C  0.29967778  0.73235542  0.90963549     0.79600
Cd305      Cd  0.26295081  0.75582551  0.87593462     1.37500
O306        O  0.23604087  0.72113677  0.85802637    -0.55300
O307        O  0.27655483  0.72538372  0.90877939    -0.54200
C308        C  0.27328437  0.79784186  0.84163005     0.79600
O309        O  0.30626256  0.75045417  0.89502027    -0.56500
O310        O  0.27332071  0.72667819  0.84132395    -0.55000
O311        O  0.24922328  0.78331752  0.91101443    -0.55000
O312        O  0.25186578  0.78668759  0.84279392    -0.54100
O313        O  0.39487018  0.49674014  0.82383831    -0.55300
C314        C  0.33597327  0.54809812  0.80285728     0.77300
O315        O  0.31518363  0.48026658  0.84641002    -0.56500
C316        C  0.39815210  0.48025470  0.84132969     0.77300
C317        C  0.35398032  0.53950293  0.88686342     0.79600
Cd318      Cd  0.35184716  0.51040315  0.83984672     1.37500
O319        O  0.35898556  0.54039047  0.80329201    -0.55300
O320        O  0.37073238  0.54122266  0.86942346    -0.54200
C321        C  0.31765393  0.47058017  0.82436938     0.79600
O322        O  0.33594477  0.52383841  0.88291896    -0.56500
O323        O  0.32105869  0.53920761  0.81967379    -0.55000
O324        O  0.38062877  0.47866073  0.85800097    -0.55000
O325        O  0.33574193  0.47873748  0.81061483    -0.54100
O326        O  0.17912730  0.52493333  0.60897602    -0.55300
C327        C  0.19637775  0.46959555  0.66727673     0.77300
O328        O  0.15517728  0.53995170  0.68712453    -0.56500
C329        C  0.16189642  0.54181853  0.60611214     0.77300
C330        C  0.11675313  0.47879969  0.64828238     0.79600
Cd331      Cd  0.16244096  0.50959059  0.65113135     1.37500
O332        O  0.19756302  0.47789300  0.64451277    -0.55300
O333        O  0.13426661  0.47810582  0.63153384    -0.54200
C334        C  0.17816438  0.54775826  0.68700804     0.79600
O335        O  0.11955214  0.49496533  0.66603984    -0.56500
O336        O  0.17988077  0.47954663  0.68183783    -0.55000
O337        O  0.14487323  0.54279338  0.62335188    -0.55000
O338        O  0.19315153  0.53810781  0.67070939    -0.54100
O339        O  0.29318492  0.36353950  0.72055280    -0.55300
C340        C  0.23666486  0.41776983  0.70747624     0.77300
O341        O  0.22450648  0.36299100  0.77104158    -0.56500
C342        C  0.30061959  0.34985968  0.73908211     0.77300
C343        C  0.27802469  0.41945140  0.78320624     0.79600
Cd344      Cd  0.25834432  0.38463183  0.74553247     1.37500
O345        O  0.25684792  0.40523095  0.70269742    -0.55300
O346        O  0.28648939  0.41887549  0.76058258    -0.54200
C347        C  0.21697981  0.34909388  0.75283616     0.79600
O348        O  0.25993000  0.40437421  0.78864673    -0.56500
O349        O  0.22697530  0.41518313  0.72946456    -0.55000
O350        O  0.28868648  0.35254878  0.75993067    -0.55000
O351        O  0.22838932  0.35189837  0.73167622    -0.54100
O352        O  0.24118525  0.65536710  0.78320545    -0.55300
C353        C  0.21840617  0.59952370  0.72634251     0.77300
O354        O  0.27363491  0.65761521  0.70637376    -0.56500
C355        C  0.26180761  0.66783754  0.78620257     0.77300
C356        C  0.29585435  0.59801910  0.76061571     0.79600
Cd357      Cd  0.25738935  0.63351186  0.74414142     1.37500
O358        O  0.21516013  0.61157426  0.74708275    -0.55300
O359        O  0.27431954  0.60030823  0.77142958    -0.54200
C360        C  0.25395256  0.67187973  0.70516842     0.79600
O361        O  0.29995923  0.61166966  0.74094803    -0.56500
O362        O  0.23921955  0.60310448  0.71448300    -0.55000
O363        O  0.27959418  0.66391755  0.77029258    -0.55000
O364        O  0.23653480  0.66804763  0.72152140    -0.54100
O365        O  0.12568331  0.02176938  0.82713449    -0.55300
C366        C  0.18477859  0.96950625  0.80560251     0.77300
O367        O  0.20535521  0.03592250  0.85183875    -0.56500
C368        C  0.12275217  0.03830434  0.84454168     0.77300
C369        C  0.16729378  0.97594009  0.88830876     0.79600
Cd370      Cd  0.16867398  0.00703461  0.84258874     1.37500
O371        O  0.16200539  0.97793911  0.80514780    -0.55300
O372        O  0.15023055  0.97475928  0.87121053    -0.54200
C373        C  0.20520387  0.04568495  0.82967546     0.79600
O374        O  0.18482728  0.99225539  0.88477836    -0.56500
O375        O  0.19925722  0.97799351  0.82283119    -0.55000
O376        O  0.14042981  0.03954301  0.86097755    -0.55000
O377        O  0.18819409  0.03812276  0.81439616    -0.54100
O378        O  0.26450269  0.11133098  0.79424150    -0.55300
C379        C  0.30115584  0.16868949  0.75002626     0.77300
O380        O  0.26095442  0.11125695  0.70778087    -0.56500
C381        C  0.24590330  0.09639370  0.79022209     0.77300
C382        C  0.21903939  0.16473638  0.75144731     0.79600
Cd383      Cd  0.26197603  0.13078493  0.75089660     1.37500
O384        O  0.30062901  0.15238723  0.76799354    -0.55300
O385        O  0.23421802  0.16226528  0.77005383    -0.54200
C386        C  0.28089355  0.09799040  0.71158201     0.79600
O387        O  0.22297917  0.15063542  0.73216652    -0.56500
O388        O  0.28408024  0.16698647  0.73310588    -0.55000
O389        O  0.23570233  0.09704994  0.76837158    -0.55000
O390        O  0.29135070  0.09957125  0.73324806    -0.54100
O391        O  0.34307418  0.99628534  0.61386436    -0.55300
C392        C  0.32239121  0.04855370  0.67093364     0.77300
O393        O  0.36656535  0.97849183  0.69086855    -0.56500
C394        C  0.36074957  0.97997596  0.61060554     0.77300
C395        C  0.40440784  0.04219041  0.65598417     0.79600
Cd396      Cd  0.35898324  0.01062073  0.65634014     1.37500
O397        O  0.32420837  0.04215955  0.64766350    -0.55300
O398        O  0.38793357  0.04247626  0.63830823    -0.54200
C399        C  0.34325744  0.97173712  0.69173117     0.79600
O400        O  0.40055297  0.02636856  0.67395732    -0.56500
O401        O  0.33735650  0.03787379  0.68656637    -0.55000
O402        O  0.37748170  0.97859828  0.62800342    -0.55000
O403        O  0.32800545  0.98266599  0.67653826    -0.54100
O404        O  0.24565956  0.86230747  0.71047984    -0.55300
C405        C  0.22576397  0.91876425  0.76523853     0.77300
O406        O  0.28280606  0.85928172  0.78461829    -0.56500
C407        C  0.26512906  0.84822862  0.70687521     0.77300
C408        C  0.30315161  0.91895009  0.73045695     0.79600
Cd409      Cd  0.26453573  0.88401089  0.74791558     1.37500
O410        O  0.22197860  0.90552279  0.74538216    -0.55300
O411        O  0.28229989  0.91554503  0.71876573    -0.54200
C412        C  0.26203388  0.84735520  0.78871620     0.79600
O413        O  0.30662379  0.90628813  0.75085142    -0.56500
O414        O  0.24713141  0.91621656  0.77627101    -0.55000
O415        O  0.28387546  0.85119490  0.72177464    -0.55000
O416        O  0.24329155  0.85284288  0.77452167    -0.54100
O417        O  0.54315902  0.16116718  0.69454222    -0.55300
C418        C  0.48134914  0.12117525  0.65757059     0.77300
O419        O  0.48095975  0.20296088  0.65231381    -0.56500
C420        C  0.55148295  0.18381663  0.69268865     0.77300
C421        C  0.54160391  0.16452562  0.61236856     0.79600
Cd422      Cd  0.51179832  0.16708805  0.65890462     1.37500
O423        O  0.49745271  0.12452445  0.67536983    -0.55300
O424        O  0.54381755  0.14866392  0.63051891    -0.54200
C425        C  0.47262789  0.20199787  0.67506712     0.79600
O426        O  0.52476057  0.18178606  0.61520905    -0.56500
O427        O  0.48028248  0.13843498  0.64065561    -0.55000
O428        O  0.54185883  0.19778238  0.67552542    -0.55000
O429        O  0.48210180  0.18521319  0.68959203    -0.54100
O430        O  0.48432397  0.32191350  0.85145118    -0.55300
C431        C  0.54279506  0.36239491  0.88743096     0.77300
O432        O  0.54118398  0.36820521  0.80569623    -0.56500
C433        C  0.47402601  0.32239461  0.82956832     0.77300
C434        C  0.47849425  0.40433090  0.84277049     0.79600
Cd435      Cd  0.51138535  0.35990803  0.84225278     1.37500
O436        O  0.52628150  0.34490900  0.88484322    -0.55300
O437        O  0.47932357  0.38838835  0.86096536    -0.54200
C438        C  0.54952294  0.34549383  0.80543595     0.79600
O439        O  0.49384153  0.40043533  0.82438537    -0.56500
O440        O  0.54374880  0.37895608  0.86980051    -0.55000
O441        O  0.48051794  0.34010205  0.81455243    -0.55000
O442        O  0.54073069  0.33036376  0.82203012    -0.54100
O443        O  0.61713048  0.22428895  0.74842407    -0.55300
C444        C  0.67289186  0.26868734  0.78559826     0.77300
O445        O  0.65431987  0.28997488  0.70748781    -0.56500
C446        C  0.60269508  0.22714818  0.72922262     0.77300
C447        C  0.60029170  0.30583487  0.76406515     0.79600
Cd448      Cd  0.63549821  0.26813644  0.74538917     1.37500
O449        O  0.65926943  0.24904106  0.78196976    -0.55300
O450        O  0.60351920  0.28456531  0.77500087    -0.54200
C451        C  0.66971470  0.27193272  0.70257729     0.79600
O452        O  0.61288239  0.30989976  0.74376971    -0.56500
O453        O  0.66891529  0.28751515  0.77103960    -0.55000
O454        O  0.60328975  0.24852729  0.71804841    -0.55000
O455        O  0.66878158  0.25266214  0.71714091    -0.54100
O456        O  0.37213536  0.22072599  0.77985235    -0.55300
C457        C  0.42338508  0.27943200  0.79224522     0.77300
O458        O  0.40642005  0.25977341  0.71235578    -0.56500
C459        C  0.35572074  0.21522927  0.76298813     0.77300
C460        C  0.34959896  0.29796091  0.75569695     0.79600
Cd461      Cd  0.38803152  0.25871264  0.75636967     1.37500
O462        O  0.41032400  0.25993139  0.79795332    -0.55300
O463        O  0.35429705  0.28449582  0.77517809    -0.54200
C464        C  0.42090976  0.24075729  0.71626455     0.79600
O465        O  0.36300448  0.29369747  0.73592417    -0.56500
O466        O  0.42036376  0.28886233  0.77021742    -0.55000
O467        O  0.35475482  0.22961946  0.74356381    -0.55000
O468        O  0.42012673  0.23060399  0.73814488    -0.54100
O469        O  0.89998480  0.17756297  0.98041924    -0.55300
C470        C  0.84076831  0.19705658  0.03480387     0.77300
O471        O  0.82169736  0.15495555  0.96602892    -0.56500
C472        C  0.90241424  0.16025381  0.96367346     0.77300
C473        C  0.86046919  0.11637415  0.02852860     0.79600
Cd474      Cd  0.85781345  0.16166794  0.99655499     1.37500
O475        O  0.86366034  0.19819530  0.02665026    -0.55300
O476        O  0.87757777  0.13347455  0.02865187    -0.54200
C477        C  0.82261969  0.17771038  0.95772989     0.79600
O478        O  0.84247039  0.11943321  0.01253252    -0.56500
O479        O  0.82668194  0.17979430  0.02574224    -0.55000
O480        O  0.88510255  0.14338382  0.96331454    -0.55000
O481        O  0.83939579  0.19216277  0.96713733    -0.54100
O482        O  0.73432174  0.21639205  0.13513684    -0.55300
C483        C  0.71888662  0.27548520  0.08363736     0.77300
O484        O  0.77696584  0.29094208  0.14021148    -0.56500
C485        C  0.75157170  0.21170613  0.15147798     0.77300
C486        C  0.79757309  0.23668578  0.08433612     0.79600
Cd487      Cd  0.75691604  0.25434879  0.11721378     1.37500
O488        O  0.71436659  0.25503977  0.09575060    -0.55300
O489        O  0.77507088  0.22794827  0.08337289    -0.54200
C490        C  0.75755463  0.29454857  0.15438452     0.79600
O491        O  0.80170919  0.25435858  0.10020799    -0.56500
O492        O  0.74082029  0.28524017  0.08630191    -0.55000
O493        O  0.77088351  0.22621455  0.15126699    -0.55000
O494        O  0.73865413  0.27997813  0.15103826    -0.54100
O495        O  0.68279732  0.39825026  0.01209454    -0.55300
C496        C  0.70108271  0.33776361  0.95988533     0.77300
O497        O  0.65698403  0.31931514  0.02561059    -0.56500
C498        C  0.66423368  0.40241037  0.02723149     0.77300
C499        C  0.62100269  0.36062240  0.96517630     0.79600
Cd500      Cd  0.66562235  0.35656549  0.99716906     1.37500
O501        O  0.70278070  0.36068733  0.96735926    -0.55300
O502        O  0.64032209  0.37496981  0.96260491    -0.54200
C503        C  0.67888791  0.32026679  0.03597984     0.79600
O504        O  0.62181392  0.34456565  0.98335086    -0.56500
O505        O  0.68332031  0.32439127  0.96926749    -0.55000
O506        O  0.64645186  0.38604448  0.02736671    -0.55000
O507        O  0.69344831  0.33834163  0.02942338    -0.54100
O508        O  0.72707551  0.23459353  0.85331103    -0.55300
C509        C  0.78275265  0.21923628  0.90691369     0.77300
O510        O  0.79752287  0.28392807  0.85606568    -0.56500
C511        C  0.72009771  0.25309021  0.83937138     0.77300
C512        C  0.74170470  0.29559770  0.90980092     0.79600
Cd513      Cd  0.76191083  0.25864209  0.87468035     1.37500
O514        O  0.76267464  0.21527061  0.89405978    -0.55300
O515        O  0.73412060  0.27274416  0.90960059    -0.54200
C516        C  0.80378418  0.26697133  0.84007795     0.79600
O517        O  0.75920948  0.30159132  0.89418985    -0.56500
O518        O  0.79290642  0.24099789  0.90490865    -0.55000
O519        O  0.73220015  0.27375578  0.84206916    -0.55000
O520        O  0.79079378  0.24663617  0.84035637    -0.54100
O521        O  0.97859337  0.36292674  0.68870671    -0.55300
C522        C  0.03898247  0.40052109  0.64854501     0.77300
O523        O  0.03548282  0.31807616  0.64351778    -0.56500
C524        C  0.96949984  0.34053963  0.68803219     0.77300
C525        C  0.97509311  0.35736846  0.60584195     0.79600
Cd526      Cd  0.00699158  0.35563854  0.65090955     1.37500
O527        O  0.02180332  0.39828426  0.66558118    -0.55300
O528        O  0.97382517  0.37405316  0.62322636    -0.54200
C529        C  0.04489898  0.31884741  0.66580138     0.79600
O530        O  0.99200973  0.34020835  0.60866374    -0.56500
O531        O  0.04049285  0.38261784  0.63244949    -0.55000
O532        O  0.97710575  0.32618018  0.67027060    -0.55000
O533        O  0.03727131  0.33647679  0.68030913    -0.54100
O534        O  0.04231771  0.19857677  0.84684951    -0.55300
C535        C  0.97983998  0.16043110  0.88424457     0.77300
O536        O  0.98503947  0.15507425  0.80178494    -0.56500
C537        C  0.05180431  0.19714643  0.82457133     0.77300
C538        C  0.04372677  0.11571384  0.84398859     0.79600
Cd539      Cd  0.01299477  0.16153287  0.83996872     1.37500
O540        O  0.99724667  0.17716350  0.88208356    -0.55300
O541        O  0.04460160  0.13350413  0.86025306    -0.54200
C542        C  0.97592728  0.17749372  0.80283564     0.79600
O543        O  0.02756327  0.11841099  0.82611092    -0.56500
O544        O  0.97855191  0.14414165  0.86649897    -0.55000
O545        O  0.04409253  0.17924529  0.81052721    -0.55000
O546        O  0.98360169  0.19158998  0.82071775    -0.54100
O547        O  0.10849396  0.25602309  0.69886684    -0.55300
C548        C  0.16516883  0.21156215  0.73504242     0.77300
O549        O  0.15596648  0.29180707  0.75876707    -0.56500
C550        C  0.09621457  0.27619081  0.70415750     0.77300
C551        C  0.10008737  0.23790773  0.78143455     0.79600
Cd552      Cd  0.13206611  0.25523925  0.74010684     1.37500
O553        O  0.14924487  0.21691647  0.71759255    -0.55300
O554        O  0.09788262  0.22975055  0.75887738    -0.54200
C555        C  0.16945653  0.29534076  0.73888060     0.79600
O556        O  0.11673570  0.25498713  0.78529964    -0.56500
O557        O  0.16536615  0.22613786  0.75422728    -0.55000
O558        O  0.10014352  0.28605829  0.72577824    -0.55000
O559        O  0.16545296  0.28063645  0.72027267    -0.54100
O560        O  0.90869685  0.30047536  0.74985405    -0.55300
C561        C  0.85151623  0.25483343  0.78598953     0.77300
O562        O  0.86744999  0.23803657  0.70927926    -0.56500
C563        C  0.92144436  0.29806454  0.72936761     0.77300
C564        C  0.92469853  0.21861760  0.76344007     0.79600
Cd565      Cd  0.88937101  0.25714213  0.74662621     1.37500
O566        O  0.86704044  0.27343388  0.78521495    -0.55300
O567        O  0.92030521  0.23865371  0.77606074    -0.54200
C568        C  0.85293685  0.25726855  0.70622196     0.79600
O569        O  0.91299463  0.21607734  0.74243869    -0.56500
O570        O  0.85411920  0.23779278  0.76920432    -0.55000
O571        O  0.91971256  0.27707815  0.71773949    -0.55000
O572        O  0.85606397  0.27586687  0.72114145    -0.54100
O573        O  0.83635774  0.39376699  0.48055852    -0.55300
C574        C  0.81926347  0.33322218  0.53373897     0.77300
O575        O  0.86129113  0.31620659  0.46405633    -0.56500
C576        C  0.85441012  0.39775583  0.46475448     0.77300
C577        C  0.89806700  0.35506718  0.52679053     0.79600
Cd578      Cd  0.85337442  0.35163428  0.49492327     1.37500
O579        O  0.81790030  0.35634133  0.52661201    -0.55300
O580        O  0.87984189  0.37098878  0.52764018    -0.54200
C581        C  0.83840501  0.31666101  0.45592767     0.79600
O582        O  0.89637225  0.33767543  0.51006255    -0.56500
O583        O  0.83584489  0.31934022  0.52300970    -0.55000
O584        O  0.87178916  0.38091076  0.46372989    -0.55000
O585        O  0.82353588  0.33326038  0.46518750    -0.54100
O586        O  0.61931838  0.17998857  0.51465522    -0.55300
C587        C  0.67620843  0.20098862  0.46111830     0.77300
O588        O  0.69835509  0.15297389  0.52592003    -0.56500
C589        C  0.61636233  0.16217990  0.53084105     0.77300
C590        C  0.65985427  0.11856354  0.46647891     0.79600
Cd591      Cd  0.66108283  0.16329582  0.49821604     1.37500
O592        O  0.65270157  0.19823484  0.46654411    -0.55300
O593        O  0.64241707  0.13534826  0.46606787    -0.54200
C594        C  0.69836939  0.17483368  0.53617113     0.79600
O595        O  0.67768177  0.12185148  0.48249203    -0.56500
O596        O  0.69190959  0.18670566  0.47256552    -0.55000
O597        O  0.63331403  0.14490017  0.53087214    -0.55000
O598        O  0.68103225  0.19030069  0.52953625    -0.54100
O599        O  0.77332895  0.22361632  0.35295383    -0.55300
C600        C  0.79538861  0.27777807  0.40680829     0.77300
O601        O  0.73188334  0.29830184  0.35551224    -0.56500
C602        C  0.75454242  0.22082639  0.33792859     0.77300
C603        C  0.71606317  0.24234707  0.41024909     0.79600
Cd604      Cd  0.75404458  0.26104686  0.37493978     1.37500
O605        O  0.79801522  0.25811941  0.39308543    -0.55300
O606        O  0.73754757  0.23167827  0.40719545    -0.54200
C607        C  0.74990617  0.30328008  0.34004091     0.79600
O608        O  0.71181538  0.26238826  0.39739086    -0.56500
O609        O  0.77399897  0.28906290  0.40603956    -0.55000
O610        O  0.73610396  0.23624424  0.34035051    -0.55000
O611        O  0.76966098  0.28933104  0.34144619    -0.54100
O612        O  0.76187197  0.20741367  0.59861708    -0.55300
C613        C  0.80597465  0.24289903  0.65234811     0.77300
O614        O  0.76255541  0.29392817  0.59961288    -0.56500
C615        C  0.74277357  0.21276935  0.58478175     0.77300
C616        C  0.72286052  0.25306898  0.65576075     0.79600
Cd617      Cd  0.76342839  0.25020950  0.61863842     1.37500
O618        O  0.80087770  0.22624944  0.63568041    -0.55300
O619        O  0.73591330  0.23316276  0.65192408    -0.54200
C620        C  0.78205448  0.29028690  0.58567631     0.79600
O621        O  0.72809601  0.27232578  0.64202218    -0.56500
O622        O  0.79163906  0.26236589  0.65294060    -0.55000
O623        O  0.73404439  0.23521042  0.58602288    -0.55000
O624        O  0.79260350  0.26862933  0.58699886    -0.54100
C625        C  0.68535070  0.21910071  0.44261293    -0.10800
C626        C  0.69754806  0.23158850  0.42750726    -0.12400
C627        C  0.73084481  0.19437879  0.56855668    -0.10800
C628        C  0.71735908  0.18265769  0.55416867    -0.12400
C629        C  0.80304224  0.32256077  0.55321337    -0.10800
C630        C  0.79201679  0.30952742  0.56876157    -0.12400
C631        C  0.82882851  0.29917059  0.43725452    -0.10800
C632        C  0.81554650  0.28740913  0.42265112    -0.12400
C633        C  0.83282510  0.25869560  0.68678155    -0.14000
C634        C  0.82742664  0.23990574  0.67036407    -0.29100
H635        H  0.82155352  0.27613849  0.68643845     0.15100
H636        H  0.83854096  0.22237651  0.67033976     0.15600
C637        C  0.08448343  0.22743289  0.80152047    -0.10800
C638        C  0.07013126  0.21507853  0.81473462    -0.12400
C639        C  0.94228563  0.19982586  0.77305543    -0.10800
C640        C  0.95758156  0.18721646  0.78487261    -0.12400
C641        C  0.95583067  0.33696513  0.56696087    -0.10900
C642        C  0.95713751  0.35763584  0.58394974     0.11300
C643        C  0.93995926  0.37804475  0.58081861    -0.10900
C644        C  0.92140796  0.37749376  0.56166215    -0.10900
C645        C  0.91954871  0.35651797  0.54514937     0.11300
C646        C  0.93719908  0.33641191  0.54772027    -0.10900
H647        H  0.96873429  0.32090068  0.56899056     0.15300
H648        H  0.94048211  0.39425990  0.59355247     0.15300
H649        H  0.90811515  0.39330580  0.56016071     0.15300
H650        H  0.93612116  0.31993180  0.53537566     0.15300
C651        C  0.06336571  0.30066911  0.67491055    -0.10800
C652        C  0.07859540  0.28787081  0.68661120    -0.12400
C653        C  0.95157745  0.33099760  0.70653481    -0.10800
C654        C  0.93726702  0.31799249  0.71911728    -0.12400
C655        C  0.82511167  0.27066254  0.82196701    -0.14000
C656        C  0.83106173  0.25240114  0.80510005    -0.29100
H657        H  0.83575133  0.28843324  0.82229929     0.15100
H658        H  0.82002795  0.23485503  0.80476189     0.15600
C659        C  0.71832842  0.32674386  0.94161075    -0.10800
C660        C  0.73037820  0.31383484  0.92681698    -0.12400
C661        C  0.70012970  0.28775085  0.06774525    -0.10800
C662        C  0.68783243  0.30139673  0.05378829    -0.12400
C663        C  0.94029202  0.18077588  0.94186036    -0.10900
C664        C  0.92374836  0.15983886  0.94487371     0.11300
C665        C  0.92668950  0.13881684  0.92855314    -0.10900
C666        C  0.94528836  0.13889075  0.90933147    -0.10900
C667        C  0.96149735  0.15997108  0.90591927     0.11300
C668        C  0.95902651  0.18082620  0.92256820    -0.10900
H669        H  0.93835011  0.19734120  0.95399823     0.15300
H670        H  0.91428136  0.12238484  0.93034902     0.15300
H671        H  0.94673494  0.12250583  0.89687666     0.15300
H672        H  0.97113526  0.19741736  0.92028009     0.15300
C673        C  0.83045395  0.21443518  0.05337979    -0.10800
C674        C  0.81729168  0.22635642  0.06813243    -0.12400
C675        C  0.80555997  0.18748280  0.93857475    -0.10800
C676        C  0.79374093  0.20021657  0.92339773    -0.12400
C677        C  0.68809882  0.27323870  0.68116321    -0.14000
C678        C  0.70303179  0.25309615  0.67572815    -0.29100
H679        H  0.68965523  0.29075716  0.67015188     0.15100
H680        H  0.70104521  0.23563086  0.68678120     0.15600
C681        C  0.69273320  0.27022735  0.80543088    -0.14000
C682        C  0.69911195  0.25063282  0.82072111    -0.29100
H683        H  0.70290439  0.28820620  0.80702357     0.15100
H684        H  0.68924123  0.23250118  0.81915428     0.15600
C685        C  0.57919381  0.38259565  0.91051140    -0.10900
C686        C  0.56081851  0.36313301  0.90922296     0.11300
C687        C  0.56118123  0.34369872  0.92780067    -0.10900
C688        C  0.58017441  0.34330016  0.94670303    -0.10900
C689        C  0.59917339  0.36224825  0.94723968     0.11300
C690        C  0.59816349  0.38212454  0.92923183    -0.10900
H691        H  0.57940728  0.39786917  0.89654255     0.15300
H692        H  0.54726955  0.32842951  0.92727737     0.15300
H693        H  0.58050410  0.32772908  0.96033363     0.15300
H694        H  0.61244450  0.39706860  0.92921156     0.15300
C695        C  0.44079710  0.29090135  0.80983734    -0.10800
C696        C  0.45586784  0.30378466  0.82136113    -0.12400
C697        C  0.56806844  0.33653940  0.78728960    -0.10800
C698        C  0.58312962  0.32434789  0.77479661    -0.12400
C699        C  0.55878166  0.18223168  0.57080214    -0.10900
C700        C  0.55852101  0.16300292  0.58961212     0.11300
C701        C  0.57590531  0.14265271  0.58746839    -0.10900
C702        C  0.59386226  0.14201552  0.56772784    -0.10900
C703        C  0.59502938  0.16175642  0.54958553     0.11300
C704        C  0.57693518  0.18163241  0.55095018    -0.10900
H705        H  0.54555150  0.19811614  0.57190624     0.15300
H706        H  0.57613007  0.12744692  0.60151152     0.15300
H707        H  0.60742084  0.12637115  0.56719226     0.15300
H708        H  0.57732621  0.19708015  0.53718200     0.15300
C709        C  0.45330178  0.21899769  0.68464653    -0.10800
C710        C  0.43777963  0.23068315  0.69708762    -0.12400
C711        C  0.57086585  0.19402865  0.70915013    -0.10800
C712        C  0.58615290  0.20730437  0.72008411    -0.12400
C713        C  0.42977578  0.07641545  0.63461866    -0.10900
C714        C  0.42629742  0.06016954  0.65570887     0.11300
C715        C  0.44266731  0.06271703  0.67685309    -0.10900
C716        C  0.46137167  0.08193612  0.67726540    -0.10900
C717        C  0.46395230  0.09889046  0.65654336     0.11300
C718        C  0.44831288  0.09550899  0.63504250    -0.10900
H719        H  0.41762207  0.07488146  0.61796676     0.15300
H720        H  0.44044516  0.05044746  0.69338057     0.15300
H721        H  0.47317052  0.08407787  0.69409460     0.15300
H722        H  0.44991369  0.10811085  0.61868938     0.15300
C723        C  0.32171376  0.93663185  0.72052581    -0.10800
C724        C  0.33388483  0.95238498  0.70883933    -0.12400
C725        C  0.19850587  0.18390528  0.75270963    -0.14000
C726        C  0.18303488  0.18977857  0.73308846    -0.29100
H727        H  0.19707777  0.19464785  0.77036988     0.15100
H728        H  0.18416274  0.17921190  0.71531810     0.15600
C729        C  0.32019457  0.18912709  0.74821868    -0.14000
C730        C  0.33828667  0.19335084  0.76582193    -0.29100
H731        H  0.31870536  0.20168531  0.73172882     0.15100
H732        H  0.33986713  0.18114266  0.78254484     0.15600
C733        C  0.29174199  0.08176813  0.69240809    -0.10800
C734        C  0.30432543  0.06707043  0.67994636    -0.12400
C735        C  0.08258701  0.05717208  0.82548147    -0.10900
C736        C  0.10046815  0.05593473  0.84550126     0.11300
C737        C  0.09790992  0.07300229  0.86598602    -0.10900
C738        C  0.07872118  0.09160711  0.86595196    -0.10900
C739        C  0.06158256  0.09369182  0.84540511     0.11300
C740        C  0.06330598  0.07588447  0.82544000    -0.10900
H741        H  0.08403216  0.04426101  0.80945101     0.15300
H742        H  0.11124554  0.07247963  0.88178837     0.15300
H743        H  0.07785530  0.10492276  0.88169205     0.15300
H744        H  0.05036507  0.07700068  0.80934464     0.15300
C745        C  0.22348404  0.06434835  0.82143656    -0.10800
C746        C  0.23596814  0.07950194  0.80938777    -0.12400
C747        C  0.19443567  0.95109994  0.78765424    -0.10800
C748        C  0.20688262  0.93597120  0.77545220    -0.12400
C749        C  0.19614187  0.33037440  0.75613854    -0.14000
C750        C  0.18914607  0.31526388  0.73673823    -0.29100
H751        H  0.18691910  0.32860735  0.77467316     0.15100
H752        H  0.19872999  0.31705391  0.71837463     0.15600
C753        C  0.32198265  0.33154988  0.73662429    -0.14000
C754        C  0.32921173  0.31730705  0.75672467    -0.29100
H755        H  0.33152564  0.32950343  0.71828932     0.15100
H756        H  0.31939077  0.31947929  0.77491413     0.15600
C757        C  0.07791489  0.45837043  0.66818777    -0.10900
C758        C  0.09488469  0.46082999  0.64743133     0.11300
C759        C  0.09206398  0.44444653  0.62645656    -0.10900
C760        C  0.07336669  0.42544089  0.62658608    -0.10900
C761        C  0.05695094  0.42236065  0.64765881     0.11300
C762        C  0.05909202  0.43931188  0.66829111    -0.10900
H763        H  0.07971404  0.47062775  0.68467968     0.15300
H764        H  0.10478373  0.44586490  0.61014678     0.15300
H765        H  0.07214120  0.41276466  0.61035452     0.15300
H766        H  0.04677643  0.43732715  0.68484427     0.15300
C767        C  0.22503925  0.43454037  0.68910769    -0.10800
C768        C  0.21300146  0.44996360  0.67688690    -0.12400
C769        C  0.18748431  0.56678614  0.70434257    -0.10800
C770        C  0.19966459  0.58225929  0.71622748    -0.12400
C771        C  0.42460151  0.44766853  0.86388628    -0.10900
C772        C  0.42066907  0.46302875  0.84222732     0.11300
C773        C  0.43725143  0.46028846  0.82119842    -0.10900
C774        C  0.45670067  0.44174491  0.82152675    -0.10900
C775        C  0.45991417  0.42575189  0.84292767     0.11300
C776        C  0.44395803  0.42930569  0.86424234    -0.10900
H777        H  0.41226538  0.44940555  0.88044900     0.15300
H778        H  0.43463592  0.47183568  0.80421670     0.15300
H779        H  0.46870312  0.43942716  0.80479889     0.15300
H780        H  0.44597974  0.41740398  0.88106239     0.15300
C781        C  0.32660423  0.56605453  0.78422812    -0.10800
C782        C  0.31458734  0.58084777  0.77117066    -0.12400
C783        C  0.28893894  0.43640052  0.80174080    -0.10800
C784        C  0.30070155  0.45149945  0.81447920    -0.12400
C785        C  0.27793456  0.81900434  0.82348820    -0.14000
C786        C  0.25891932  0.82764312  0.80854955    -0.29100
H787        H  0.29700998  0.82710246  0.82201508     0.15100
H788        H  0.23995594  0.81929845  0.81029263     0.15600
C789        C  0.24748823  0.69370784  0.82324801    -0.14000
C790        C  0.26569472  0.68658544  0.80661291    -0.29100
H791        H  0.22871617  0.68483061  0.82292829     0.15100
H792        H  0.28436910  0.69568008  0.80721526     0.15600
C793        C  0.18862563  0.93828892  0.94670586    -0.10900
C794        C  0.16803573  0.92133372  0.94991547     0.11300
C795        C  0.14656783  0.92388380  0.93397236    -0.10900
C796        C  0.14606552  0.94221705  0.91459378    -0.10900
C797        C  0.16700038  0.95852575  0.91066385     0.11300
C798        C  0.18809857  0.95675602  0.92724909    -0.10900
H799        H  0.20544889  0.93674696  0.95867020     0.15300
H800        H  0.13034457  0.91120172  0.93600177     0.15300
H801        H  0.12948019  0.94317757  0.90224821     0.15300
H802        H  0.20453025  0.96906795  0.92466008     0.15300
C803        C  0.23799567  0.81794834  0.07233755    -0.10800
C804        C  0.22615957  0.83070956  0.05720893    -0.12400
C805        C  0.19566709  0.80281731  0.94153281    -0.10800
C806        C  0.20754924  0.79047839  0.92614644    -0.12400
C807        C  0.37692458  0.58894681  0.93400537    -0.10900
C808        C  0.35613526  0.59078640  0.95099966     0.11300
C809        C  0.33541250  0.57397590  0.94806571    -0.10900
C810        C  0.33500629  0.55653331  0.92777578    -0.10900
C811        C  0.35531546  0.55561978  0.91008561     0.11300
C812        C  0.37654095  0.57157403  0.91385866    -0.10900
H813        H  0.39324289  0.60152463  0.93579323     0.15300
H814        H  0.31908847  0.57500016  0.96081658     0.15300
H815        H  0.31842083  0.54442079  0.92541423     0.15300
H816        H  0.39260565  0.57120165  0.90074103     0.15300
C817        C  0.29875400  0.68566143  0.05685880    -0.10800
C818        C  0.28759316  0.69917940  0.07182095    -0.12400
C819        C  0.31736213  0.72004663  0.92666641    -0.10800
C820        C  0.32903819  0.70769768  0.94225194    -0.12400
C821        C  0.94914212  0.71595409  0.31567815    -0.10800
C822        C  0.93494590  0.72754605  0.30165377    -0.12400
C823        C  0.18372190  0.74348803  0.18288853    -0.14000
C824        C  0.20015756  0.76232037  0.17722133    -0.29100
H825        H  0.18451394  0.72551100  0.17267848     0.15100
H826        H  0.19925571  0.78012104  0.18775417     0.15600
C827        C  0.06215666  0.68707512  0.28970614    -0.10800
C828        C  0.07756154  0.69903354  0.27740008    -0.12400
C829        C  0.06688349  0.83669000  0.06854851    -0.10900
C830        C  0.06328134  0.85797999  0.08442332     0.11300
C831        C  0.07932886  0.87920825  0.08125733    -0.10900
C832        C  0.09921053  0.87881670  0.06340583    -0.10900
C833        C  0.10354169  0.85720188  0.04822438     0.11300
C834        C  0.08686617  0.83630010  0.05059449    -0.10900
H835        H  0.05486134  0.82000838  0.07063202     0.15300
H836        H  0.07701969  0.89591577  0.09314370     0.15300
H837        H  0.11161306  0.89528186  0.06194781     0.15300
H838        H  0.08973428  0.81938129  0.03913784     0.15300
C839        C  0.07002725  0.82782267  0.20418571    -0.10800
C840        C  0.08434378  0.81449629  0.21647105    -0.12400
C841        C  0.94030791  0.78776119  0.18456571    -0.10800
C842        C  0.95542266  0.80072579  0.17292928    -0.12400
C843        C  0.75353661  0.20101859  0.31818253    -0.14000
C844        C  0.77266872  0.18451150  0.31358583    -0.29100
H845        H  0.73637540  0.20052135  0.30649537     0.15100
H846        H  0.79002191  0.18493696  0.32496943     0.15600
C847        C  0.76787091  0.18670300  0.18743704    -0.14000
C848        C  0.74922240  0.19077841  0.17026829    -0.29100
H849        H  0.78507360  0.19832140  0.18684369     0.15100
H850        H  0.73192308  0.17931566  0.17056775     0.15600
C851        C  0.82640306  0.83099858  0.25927641    -0.14000
C852        C  0.83128949  0.81516430  0.23974424    -0.29100
H853        H  0.83762254  0.82990161  0.27668676     0.15100
H854        H  0.81993453  0.81650724  0.22242540     0.15600
C855        C  0.92696269  0.94238271  0.12990229    -0.10900
C856        C  0.92424437  0.95876916  0.15086728     0.11300
C857        C  0.94216273  0.95722815  0.17085446    -0.10900
C858        C  0.96179386  0.93886794  0.17022307    -0.10900
C859        C  0.96372393  0.92181264  0.14961866     0.11300
C860        C  0.94640937  0.92417820  0.12928389    -0.10900
H861        H  0.91360599  0.94316799  0.11412678     0.15300
H862        H  0.94053410  0.96963440  0.18726714     0.15300
H863        H  0.97484880  0.93742789  0.18620306     0.15300
H864        H  0.94742072  0.91143063  0.11308627     0.15300
C865        C  0.84023078  0.05866929  0.06805729    -0.10900
C866        C  0.86034494  0.05679529  0.08579875     0.11300
C867        C  0.88129221  0.07343184  0.08320815    -0.10900
C868        C  0.88168850  0.09209462  0.06403213    -0.10900
C869        C  0.86115534  0.09464882  0.04688548     0.11300
C870        C  0.84063160  0.07739756  0.04880526    -0.10900
H871        H  0.82382883  0.04614703  0.06950724     0.15300
H872        H  0.89716033  0.07248142  0.09645829     0.15300
H873        H  0.89782940  0.10499976  0.06308234     0.15300
H874        H  0.82450794  0.07886468  0.03591527     0.15300
C875        C  0.83287581  0.06343292  0.20770440    -0.10800
C876        C  0.82093241  0.07846765  0.22036070    -0.12400
C877        C  0.80217975  0.94993418  0.18005165    -0.10800
C878        C  0.79056732  0.93474356  0.19307784    -0.12400
C879        C  0.64050222  0.07609988  0.41182324    -0.10900
C880        C  0.66160482  0.05958074  0.40980290     0.11300
C881        C  0.68128300  0.06116445  0.42798813    -0.10900
C882        C  0.68036130  0.07974883  0.44714057    -0.10900
C883        C  0.65970374  0.09694760  0.44842949     0.11300
C884        C  0.63953907  0.09452563  0.43093019    -0.10900
H885        H  0.62496324  0.07523805  0.39819340     0.15300
H886        H  0.69777785  0.04866460  0.42686901     0.15300
H887        H  0.69617246  0.08118194  0.46039947     0.15300
H888        H  0.62331288  0.10740954  0.43148931     0.15300
C889        C  0.72196791  0.95432219  0.31981207    -0.10800
C890        C  0.73435155  0.93878866  0.30816523    -0.12400
C891        C  0.69302939  0.06939109  0.29053266    -0.10800
C892        C  0.70586029  0.08445550  0.27873029    -0.12400
C893        C  0.76653080  0.32780224  0.30371056    -0.14000
C894        C  0.74782362  0.32394841  0.32093598    -0.29100
H895        H  0.78367506  0.31602822  0.30427587     0.15100
H896        H  0.73055226  0.33551597  0.32050825     0.15600
C897        C  0.77515881  0.33072564  0.17945589    -0.14000
C898        C  0.75619615  0.31430406  0.17421653    -0.29100
H899        H  0.79287405  0.33034037  0.16855073     0.15100
H900        H  0.73857037  0.31503945  0.18527270     0.15600
C901        C  0.81992658  0.68532915  0.25061175    -0.14000
C902        C  0.83677830  0.68992047  0.23171603    -0.29100
H903        H  0.82032203  0.69699430  0.26771895     0.15100
H904        H  0.83676058  0.67840018  0.21451913     0.15600
C905        C  0.87548284  0.44288996  0.41239161    -0.10900
C906        C  0.85447151  0.45952745  0.41044460     0.11300
C907        C  0.83427295  0.45715936  0.42811256    -0.10900
C908        C  0.83457472  0.43769786  0.44656450    -0.10900
C909        C  0.85507454  0.42029720  0.44761430     0.11300
C910        C  0.87578174  0.42353707  0.43073747    -0.10900
H911        H  0.89140233  0.44427774  0.39916400     0.15300
H912        H  0.81785402  0.46976576  0.42710948     0.15300
H913        H  0.81839835  0.43573646  0.45939386     0.15300
H914        H  0.89195087  0.41057652  0.43115016     0.15300
C915        C  0.91593564  0.57887272  0.36644784    -0.10900
C916        C  0.91457868  0.56103519  0.34655797     0.11300
C917        C  0.93333597  0.56157304  0.32725942    -0.10900
C918        C  0.95271374  0.58001662  0.32757600    -0.10900
C919        C  0.95363183  0.59822983  0.34718399     0.11300
C920        C  0.93522970  0.59723036  0.36676614    -0.10900
H921        H  0.90179335  0.57894173  0.38161195     0.15300
H922        H  0.93273847  0.54807831  0.31167100     0.15300
H923        H  0.96659022  0.58039756  0.31217697     0.15300
H924        H  0.93539985  0.61100140  0.38212655     0.15300
C925        C  0.82890657  0.45248748  0.28878080    -0.10800
C926        C  0.81799036  0.43699004  0.27583241    -0.12400
C927        C  0.79257933  0.56454153  0.32184868    -0.10800
C928        C  0.78057574  0.57982501  0.30948779    -0.12400
C929        C  0.68471322  0.45949777  0.06659026    -0.10900
C930        C  0.66364487  0.46218026  0.08314739     0.11300
C931        C  0.64210058  0.44664940  0.07952949    -0.10900
C932        C  0.64201011  0.42805341  0.06058302    -0.10900
C933        C  0.66347449  0.42446898  0.04477484     0.11300
C934        C  0.68463089  0.44076526  0.04753244    -0.10900
H935        H  0.70158790  0.47120837  0.06896962     0.15300
H936        H  0.62552537  0.44830601  0.09189482     0.15300
H937        H  0.62536533  0.41589499  0.05888710     0.15300
H938        H  0.70144392  0.43842212  0.03561753     0.15300
C939        C  0.69294348  0.44902708  0.20194540    -0.10800
C940        C  0.70561126  0.43341813  0.21336496    -0.12400
C941        C  0.71924882  0.56542808  0.17795996    -0.10800
C942        C  0.73102310  0.58027089  0.19090831    -0.12400
C943        C  0.68228522  0.69548496  0.26205033    -0.14000
C944        C  0.69817498  0.68790496  0.24341686    -0.29100
H945        H  0.68255650  0.68621863  0.28063556     0.15100
H946        H  0.69776693  0.69751946  0.22499831     0.15600
C947        C  0.68834224  0.82045392  0.23661680    -0.14000
C948        C  0.70222652  0.82870959  0.25647838    -0.29100
H949        H  0.69123817  0.82853353  0.21770706     0.15100
H950        H  0.69921339  0.82035301  0.27526356     0.15600
C951        C  0.34004034  0.77112959  0.18534106    -0.14000
C952        C  0.32344905  0.75268154  0.17917783    -0.29100
H953        H  0.34040868  0.78892368  0.17466681     0.15100
H954        H  0.32342293  0.73493032  0.18995223     0.15600
C955        C  0.43966249  0.63793198  0.09020319    -0.10900
C956        C  0.45745990  0.65798198  0.09046529     0.11300
C957        C  0.45628633  0.67659855  0.07111368    -0.10900
C958        C  0.43716478  0.67552780  0.05235004    -0.10900
C959        C  0.41892918  0.65581081  0.05260639     0.11300
C960        C  0.42067404  0.63684441  0.07152108    -0.10900
H961        H  0.44010851  0.62322079  0.10476193     0.15300
H962        H  0.46972723  0.69229112  0.07084241     0.15300
H963        H  0.43627665  0.69044423  0.03802908     0.15300
H964        H  0.40699096  0.62136950  0.07223453     0.15300
C965        C  0.56151213  0.57751251  0.16986395    -0.10900
C966        C  0.55974935  0.59567418  0.15010678     0.11300
C967        C  0.57707863  0.59415282  0.12958907    -0.10900
C968        C  0.59637373  0.57566521  0.12930846    -0.10900
C969        C  0.59883170  0.55811681  0.14949776     0.06500
C970        C  0.58086032  0.55886994  0.16953782    -0.10900
H971        H  0.54844482  0.57819090  0.18593520     0.15300
H972        H  0.57623938  0.60778381  0.11402771     0.15300
H973        H  0.60980643  0.57554865  0.11351610     0.15300
H974        H  0.58225017  0.54558638  0.18535141     0.15300
C975        C  0.45557356  0.68970626  0.21052586    -0.10800
C976        C  0.44086368  0.70266114  0.22269699    -0.12400
C977        C  0.56757009  0.71638077  0.17768854    -0.10800
C978        C  0.58240723  0.72870546  0.19019937    -0.12400
C979        C  0.56507047  0.94025567  0.32504225    -0.10900
C980        C  0.56209115  0.92420996  0.34640179     0.11300
C981        C  0.57796718  0.92786445  0.36768996    -0.10900
C982        C  0.59692775  0.94658286  0.36735934    -0.10900
C983        C  0.60051258  0.96209527  0.34572201     0.11300
C984        C  0.58411512  0.95905433  0.32470941    -0.10900
H985        H  0.55316014  0.93782254  0.30833331     0.15300
H986        H  0.57614297  0.91584287  0.38445315     0.15300
H987        H  0.60920930  0.94848211  0.38387875     0.15300
H988        H  0.58647967  0.97069181  0.30775007     0.15300
C989        C  0.58279392  0.79307083  0.30509638    -0.10800
C990        C  0.56842384  0.80534967  0.31827632    -0.12400
C991        C  0.45272130  0.83358177  0.29358398    -0.10800
C992        C  0.43784125  0.82071334  0.28170064    -0.12400
C993        C  0.31607676  0.76977305  0.31618227    -0.14000
C994        C  0.33337498  0.75134511  0.31168227    -0.29100
H995        H  0.31629756  0.78704903  0.30463670     0.15100
H996        H  0.33325177  0.73390117  0.32295372     0.15600
C997        C  0.19146195  0.77224767  0.32407112    -0.14000
C998        C  0.18725493  0.75314856  0.30758980    -0.29100
H999        H  0.17945209  0.78917750  0.32378223     0.15100
H1000       H  0.19928914  0.73622638  0.30823008     0.15600
C1001       C  0.26882578  0.69876492  0.66903355    -0.14000
C1002       C  0.25070943  0.69223530  0.68602624    -0.29100
H1003       H  0.28706892  0.68877665  0.66872094     0.15100
H1004       H  0.23265736  0.70259130  0.68635471     0.15600
C1005       C  0.24681336  0.82303319  0.67145015    -0.14000
C1006       C  0.26652781  0.82889828  0.68672507    -0.29100
H1007       H  0.22870303  0.83313363  0.67306974     0.15100
H1008       H  0.28450771  0.81856175  0.68496401     0.15600
C1009       C  0.14275856  0.59718524  0.56358855    -0.10900
C1010       C  0.16259463  0.59780397  0.54539855     0.11300
C1011       C  0.18169397  0.57886154  0.54646868    -0.10900
C1012       C  0.18126932  0.56017022  0.56578610    -0.10900
C1013       C  0.16171873  0.56007185  0.58434040     0.11300
C1014       C  0.14232906  0.57861604  0.58276188    -0.10900
H1015       H  0.12772637  0.61144231  0.56335947     0.15300
H1016       H  0.19725345  0.57884574  0.53276322     0.15300
H1017       H  0.19650157  0.54614874  0.56651695     0.15300
H1018       H  0.12698829  0.57913316  0.59671109     0.15300
C1019       C  0.05904448  0.67843952  0.42705410    -0.10900
C1020       C  0.05750761  0.65888560  0.40882883     0.11300
C1021       C  0.07577995  0.63916518  0.40950894    -0.10900
C1022       C  0.09564754  0.63945145  0.42734782    -0.10900
C1023       C  0.09773978  0.65942951  0.44501802     0.11300
C1024       C  0.07895943  0.67869780  0.44499638    -0.10900
H1025       H  0.04528660  0.69391437  0.42698813     0.15300
H1026       H  0.07516166  0.62380357  0.39575923     0.15300
H1027       H  0.10973449  0.62427118  0.42690525     0.15300
H1028       H  0.08004822  0.69433922  0.45838580     0.15300
C1029       C  0.23152248  0.70664292  0.42384323    -0.10800
C1030       C  0.21979726  0.69286989  0.43824642    -0.12400
C1031       C  0.20026830  0.73103576  0.56484107    -0.10800
C1032       C  0.18821522  0.71829119  0.55001796    -0.12400
C1033       C  0.42953751  0.88414564  0.43583871    -0.10900
C1034       C  0.42452278  0.86235569  0.45067026     0.11300
C1035       C  0.43987384  0.84057295  0.44724877    -0.10900
C1036       C  0.45902591  0.84022341  0.42842697    -0.10900
C1037       C  0.46312511  0.86165785  0.41275920     0.11300
C1038       C  0.44860379  0.88380188  0.41711564    -0.10900
H1039       H  0.41817130  0.90128287  0.43815988     0.15300
H1040       H  0.43640132  0.82348980  0.45839031     0.15300
H1041       H  0.46991055  0.82288368  0.42546998     0.15300
H1042       H  0.45143699  0.90068995  0.40549657     0.15300
C1043       C  0.38173751  0.94502688  0.58588803    -0.10900
C1044       C  0.36170886  0.96280788  0.58818884     0.11300
C1045       C  0.34217904  0.96290541  0.56974450    -0.10900
C1046       C  0.34217735  0.94486046  0.55002366    -0.10900
C1047       C  0.36165698  0.92637136  0.54846348     0.11300
C1048       C  0.38171095  0.92704198  0.56629107    -0.10900
H1049       H  0.39714401  0.94451954  0.59969305     0.15300
H1050       H  0.32652890  0.97642477  0.57098481     0.15300
H1051       H  0.32647252  0.94481168  0.53656000     0.15300
H1052       H  0.39706068  0.91313878  0.56557951     0.15300
C1053       C  0.30219384  0.83714100  0.43988882    -0.10800
C1054       C  0.28954898  0.82498054  0.42495999    -0.12400
C1055       C  0.31427450  0.79604876  0.56883056    -0.10800
C1056       C  0.32747802  0.80835161  0.55448082    -0.12400
loop_ 
_geom_bond_atom_site_label_1 
_geom_bond_atom_site_label_2 
_geom_bond_distance 
_geom_bond_site_symmetry_2 
_ccdc_geom_bond_type 
O1            C4   1.269       .  A
O1           Cd6   2.511       .  S
C2           O11   1.266       .  A
C2            O7   1.270       .  A
C2         C1047   1.483       .  S
O3            C9   1.269       .  A
O3           Cd6   2.495       .  S
C4           O12   1.262       .  A
C4         C1053   1.440       .  S
C5           O10   1.269       .  A
C5            O8   1.267       .  A
C5         C1034   1.480       .  S
Cd6          O13   2.417       .  S
Cd6          O12   2.431       .  S
Cd6          O11   2.443       .  S
Cd6           O7   2.491       .  S
Cd6          O10   2.483       .  S
Cd6           O8   2.436       .  S
C9           O13   1.262       .  A
C9         C1056   1.434       .  S
O14          C17   1.269       .  A
O14         Cd19   2.492       .  S
C15          O24   1.267       .  A
C15          O20   1.269       .  A
C15        C1023   1.484       .  S
O16          C22   1.270       .  A
O16         Cd19   2.517       .  S
C17          O25   1.263       .  A
C17        C1032   1.434       .  S
C18          O23   1.271       .  A
C18          O21   1.266       .  A
C18        C1010   1.488       .  S
Cd19         O26   2.426       .  S
Cd19         O25   2.415       .  S
Cd19         O24   2.455       .  S
Cd19         O20   2.489       .  S
Cd19         O23   2.517       .  S
Cd19         O21   2.442       .  S
C22          O26   1.261       .  A
C22        C1030   1.440       .  S
O27          C30   1.264       .  A
O27         Cd32   2.478       .  S
C28          O37   1.266       .  A
C28          O33   1.265       .  A
C28        C1001   1.476       .  S
O29          C35   1.267       .  A
O29         Cd32   2.488       .  S
C30          O38   1.264       .  A
C30        C1055   1.434       .  S
C31          O36   1.265       .  A
C31          O34   1.263       .  A
C31        C1031   1.435       .  S
Cd32         O39   2.416       .  S
Cd32         O38   2.446       .  S
Cd32         O37   2.445       .  S
Cd32         O33   2.477       .  S
Cd32         O36   2.493       .  S
Cd32         O34   2.442       .  S
C35          O39   1.264       .  A
C35        C1005   1.473       .  S
O40          C43   1.267       .  A
O40         Cd45   2.502       .  S
C41          O50   1.263       .  A
C41          O46   1.269       .  A
C41         C993   1.472       .  S
O42          C48   1.268       .  A
O42         Cd45   2.492       .  S
C43          O51   1.263       .  A
C43        C1029   1.440       .  S
C44          O49   1.267       .  A
C44          O47   1.263       .  A
C44        C1054   1.441       .  S
Cd45         O52   2.428       .  S
Cd45         O51   2.444       .  S
Cd45         O50   2.430       .  S
Cd45         O46   2.490       .  S
Cd45         O49   2.505       .  S
Cd45         O47   2.446       .  S
C48          O52   1.265       .  A
C48         C997   1.477       .  S
O53          C56   1.269       .  A
O53         Cd58   2.482       .  S
C54          O63   1.262       .  A
C54          O59   1.269       .  A
C54         C991   1.435       .  S
O55          C61   1.270       .  A
O55         Cd58   2.500       .  S
C56          O64   1.266       .  A
C56         C980   1.481       .  S
C57          O62   1.270       .  A
C57          O60   1.266       .  A
C57        C1037   1.481       .  S
Cd58         O65   2.408       .  S
Cd58         O64   2.441       .  S
Cd58         O63   2.414       .  S
Cd58         O59   2.500       .  S
Cd58         O62   2.487       .  S
Cd58         O60   2.436       .  S
C61          O65   1.261       .  A
C61         C990   1.433       .  S
O66          C69   1.270       .  A
O66         Cd71   2.497       .  S
C67          O76   1.262       .  A
C67          O72   1.269       .  A
C67         C977   1.435       .  S
O68          C74   1.269       .  A
O68         Cd71   2.500       .  S
C69          O77   1.266       .  A
C69         C956   1.483       .  S
C70          O75   1.270       .  A
C70          O73   1.266       .  A
C70         C966   1.485       .  S
Cd71         O78   2.419       .  S
Cd71         O77   2.432       .  S
Cd71         O76   2.412       .  S
Cd71         O72   2.502       .  S
Cd71         O75   2.500       .  S
Cd71         O73   2.446       .  S
C74          O78   1.262       .  A
C74         C975   1.436       .  S
O79          C82   1.263       .  A
O79         Cd84   2.492       .  S
C80          O89   1.266       .  A
C80          O85   1.265       .  A
C80         C951   1.475       .  S
O81          C87   1.265       .  A
O81         Cd84   2.501       .  S
C82          O90   1.263       .  A
C82         C992   1.436       .  S
C83          O88   1.265       .  A
C83          O86   1.265       .  A
C83         C994   1.477       .  S
Cd84         O91   2.446       .  S
Cd84         O90   2.448       .  S
Cd84         O89   2.437       .  S
Cd84         O85   2.482       .  S
Cd84         O88   2.492       .  S
Cd84         O86   2.443       .  S
C87          O91   1.262       .  A
C87         C976   1.437       .  S
O92          C95   1.264       .  A
O92         Cd97   2.483       .  S
C93         O102   1.264       .  A
C93          O98   1.263       .  A
C93         C989   1.435       .  S
O94         C100   1.265       .  A
O94         Cd97   2.494       .  S
C95         O103   1.265       .  A
C95         C943   1.473       .  S
C96         O101   1.264       .  A
C96          O99   1.263       .  A
C96         C978   1.436       .  S
Cd97        O104   2.444       .  S
Cd97        O103   2.421       .  S
Cd97        O102   2.452       .  S
Cd97         O98   2.477       .  S
Cd97        O101   2.494       .  S
Cd97         O99   2.448       .  S
C100        O104   1.264       .  A
C100        C947   1.478       .  S
O105        C108   1.270       .  A
O105       Cd110   2.498       .  S
C106        O115   1.262       .  A
C106        O111   1.270       .  A
C106        C939   1.440       .  S
O107        C113   1.269       .  A
O107       Cd110   2.487       .  S
C108        O116   1.266       .  A
C108        C969   1.485       .  S
C109        O114   1.269       .  A
C109        O112   1.263       .  A
C109        C941   1.433       .  S
Cd110       O117   2.427       .  S
Cd110       O116   2.446       .  S
Cd110       O115   2.429       .  S
Cd110       O111   2.508       .  S
Cd110       O114   2.490       .  S
Cd110       O112   2.410       .  S
C113        O117   1.266       .  A
C113        C930   1.479       .  S
O118        C121   1.267       .  A
O118       Cd123   2.493       .  S
C119        O128   1.266       .  A
C119        O124   1.268       .  A
C119        C916   1.480       .  S
O120        C126   1.267       .  A
O120       Cd123   2.495       .  S
C121        O129   1.262       .  A
C121        C925   1.434       .  S
C122        O127   1.268       .  A
C122        O125   1.266       .  A
C122        C906   1.481       .  S
Cd123       O130   2.413       .  S
Cd123       O129   2.423       .  S
Cd123       O128   2.440       .  S
Cd123       O124   2.483       .  S
Cd123       O127   2.484       .  S
Cd123       O125   2.443       .  S
C126        O130   1.262       .  A
C126        C927   1.433       .  S
O131        C134   1.267       .  A
O131       Cd136   2.496       .  S
C132        O141   1.262       .  A
C132        O137   1.270       .  A
C132        C944   1.466       .  S
O133        C139   1.269       .  A
O133       Cd136   2.494       .  S
C134        O142   1.263       .  A
C134        C928   1.433       .  S
C135        O140   1.267       .  A
C135        O138   1.263       .  A
C135        C942   1.434       .  S
Cd136       O143   2.422       .  S
Cd136       O142   2.416       .  S
Cd136       O141   2.402       .  S
Cd136       O137   2.488       .  S
Cd136       O140   2.484       .  S
Cd136       O138   2.429       .  S
C139        O143   1.263       .  A
C139        C901   1.471       .  S
O144        C147   1.267       .  A
O144       Cd149   2.508       .  S
C145        O154   1.264       .  A
C145        O150   1.270       .  A
C145        C893   1.472       .  S
O146        C152   1.268       .  A
O146       Cd149   2.495       .  S
C147        O155   1.263       .  A
C147        C940   1.441       .  S
C148        O153   1.267       .  A
C148        O151   1.263       .  A
C148        C926   1.435       .  S
Cd149       O156   2.426       .  S
Cd149       O155   2.444       .  S
Cd149       O154   2.429       .  S
Cd149       O150   2.490       .  S
Cd149       O153   2.488       .  S
Cd149       O151   2.431       .  S
C152        O156   1.266       .  A
C152        C897   1.478       .  S
O157        C160   1.268       .  A
O157       Cd162   2.490   1_565  S
C158        O167   1.266       .  A
C158        O163   1.269       .  A
C158        C880   1.478       .  S
O159        C165   1.268       .  A
O159       Cd162   2.495       .  S
C160        O168   1.263       .  A
C160        C889   1.434       .  S
C161        O166   1.269       .  A
C161        O164   1.266       .  A
C161        C983   1.481       .  S
Cd162       O169   2.416       .  S
Cd162       O168   2.420   1_545  S
Cd162       O167   2.427       .  S
Cd162       O163   2.484       .  S
Cd162       O166   2.487   1_545  S
Cd162       O164   2.435   1_545  S
C165        O169   1.262       .  A
C165        C891   1.434       .  S
O170        C173   1.268       .  A
O170       Cd175   2.484       .  S
C171        O180   1.266       .  A
C171        O176   1.268       .  A
C171        C856   1.481       .  S
O172        C178   1.269       .  A
O172       Cd175   2.525   1_565  S
C173        O181   1.263       .  A
C173        C875   1.432       .  S
C174        O179   1.270       .  A
C174        O177   1.266       .  A
C174        C866   1.490       .  S
Cd175       O182   2.433   1_545  S
Cd175       O181   2.413       .  S
Cd175       O180   2.428   1_545  S
Cd175       O176   2.500   1_545  S
Cd175       O179   2.510       .  S
Cd175       O177   2.464       .  S
C178        O182   1.261       .  A
C178        C877   1.442       .  S
O183        C186   1.268       .  A
O183       Cd188   2.506       .  S
C184        O193   1.262       .  A
C184        O189   1.269       .  A
C184        C948   1.472       .  S
O185        C191   1.268       .  A
O185       Cd188   2.489       .  S
C186        O194   1.264       .  A
C186        C878   1.442       .  S
C187        O192   1.267       .  A
C187        O190   1.263       .  A
C187        C890   1.435       .  S
Cd188       O195   2.428       .  S
Cd188       O194   2.444       .  S
Cd188       O193   2.430       .  S
Cd188       O189   2.499       .  S
Cd188       O192   2.492       .  S
Cd188       O190   2.432       .  S
C191        O195   1.266       .  A
C191        C851   1.477       .  S
O196        C199   1.266       .  A
O196       Cd201   2.483       .  S
C197        O206   1.266       .  A
C197        O202   1.267       .  A
C197        C844   1.475       .  S
O198        C204   1.268       .  A
O198       Cd201   2.494       .  S
C199        O207   1.263       .  A
C199        C876   1.432       .  S
C200        O205   1.267       .  A
C200        O203   1.263       .  A
C200        C892   1.434       .  S
Cd201       O208   2.425       .  S
Cd201       O207   2.429       .  S
Cd201       O206   2.426       .  S
Cd201       O202   2.485       .  S
Cd201       O205   2.485       .  S
Cd201       O203   2.426       .  S
C204        O208   1.263       .  A
C204        C847   1.470       .  S
O209        C212   1.269       .  A
O209       Cd214   2.483       .  S
C210        O219   1.262       .  A
C210        O215   1.268       .  A
C210        C842   1.434       .  S
O211        C217   1.269       .  A
O211       Cd214   2.504       .  S
C212        O220   1.267       .  A
C212        C830   1.481       .  S
C213        O218   1.269       .  A
C213        O216   1.266       .  A
C213        C859   1.481       .  S
Cd214       O221   2.424       .  S
Cd214       O220   2.439       .  S
Cd214       O219   2.421   1_455  S
Cd214       O215   2.496   1_455  S
Cd214       O218   2.499   1_455  S
Cd214       O216   2.428   1_455  S
C217        O221   1.262       .  A
C217        C839   1.438       .  S
O222        C225   1.266       .  A
O222       Cd227   2.500       .  S
C223        O232   1.263       .  A
C223        O228   1.268       .  A
C223        C998   1.471       .  S
O224        C230   1.266       .  A
O224       Cd227   2.483       .  S
C225        O233   1.263       .  A
C225        C840   1.439       .  S
C226        O231   1.266       .  A
C226        O229   1.265       .  A
C226        C823   1.475       .  S
Cd227       O234   2.439       .  S
Cd227       O233   2.442       .  S
Cd227       O232   2.432       .  S
Cd227       O228   2.493       .  S
Cd227       O231   2.488       .  S
Cd227       O229   2.425       .  S
C230        O234   1.264       .  A
C230        C828   1.435       .  S
O235        C238   1.271       .  A
O235       Cd240   2.494       .  S
C236        O245   1.262       .  A
C236        O241   1.271       .  A
C236        C821   1.436       .  S
O237        C243   1.269       .  A
O237       Cd240   2.489       .  S
C238        O246   1.266       .  A
C238       C1020   1.485       .  S
C239        O244   1.270       .  A
C239        O242   1.267       .  A
C239        C919   1.480       .  S
Cd240       O247   2.412       .  S
Cd240       O246   2.445       .  S
Cd240       O245   2.408   1_455  S
Cd240       O241   2.505   1_455  S
Cd240       O244   2.475   1_455  S
Cd240       O242   2.435   1_455  S
C243        O247   1.263       .  A
C243        C827   1.433       .  S
O248        C251   1.268       .  A
O248       Cd253   2.504       .  S
C249        O258   1.263       .  A
C249        O254   1.266       .  A
C249        C841   1.435       .  S
O250        C256   1.268       .  A
O250       Cd253   2.489       .  S
C251        O259   1.265       .  A
C251        C902   1.478       .  S
C252        O257   1.265       .  A
C252        O255   1.264       .  A
C252        C822   1.437       .  S
Cd253       O260   2.431       .  S
Cd253       O259   2.422       .  S
Cd253       O258   2.437       .  S
Cd253       O254   2.492       .  S
Cd253       O257   2.489       .  S
Cd253       O255   2.445       .  S
C256        O260   1.263       .  A
C256        C852   1.471       .  S
O261        C264   1.271       .  A
O261       Cd266   2.503   1_556  S
C262        O271   1.262       .  A
C262        O267   1.270       .  A
C262        C817   1.436       .  S
O263        C269   1.269       .  A
O263       Cd266   2.487       .  S
C264        O272   1.266       .  A
C264        C808   1.484       .  S
C265        O270   1.269       .  A
C265        O268   1.263       .  A
C265        C820   1.435       .  S
Cd266       O273   2.453       .  S
Cd266       O272   2.434   1_554  S
Cd266       O271   2.414       .  S
Cd266       O267   2.507       .  S
Cd266       O270   2.487   1_554  S
Cd266       O268   2.416   1_554  S
C269        O273   1.267       .  A
C269        C959   1.484       .  S
O274        C277   1.269       .  A
O274       Cd279   2.504       .  S
C275        O284   1.266       .  A
C275        O280   1.270       .  A
C275        C794   1.482       .  S
O276        C282   1.268       .  A
O276       Cd279   2.493   1_556  S
C277        O285   1.262       .  A
C277        C804   1.435       .  S
C278        O283   1.269       .  A
C278        O281   1.266       .  A
C278        C833   1.482       .  S
Cd279       O286   2.419   1_554  S
Cd279       O285   2.418       .  S
Cd279       O284   2.434   1_554  S
Cd279       O280   2.497   1_554  S
Cd279       O283   2.491       .  S
Cd279       O281   2.444       .  S
C282        O286   1.262       .  A
C282        C805   1.434       .  S
O287        C290   1.267       .  A
O287       Cd292   2.491       .  S
C288        O297   1.262       .  A
C288        O293   1.270       .  A
C288        C952   1.469       .  S
O289        C295   1.269       .  A
O289       Cd292   2.490       .  S
C290        O298   1.264       .  A
C290        C803   1.436       .  S
C291        O296   1.267       .  A
C291        O294   1.265       .  A
C291        C818   1.437       .  S
Cd292       O299   2.418       .  S
Cd292       O298   2.426       .  S
Cd292       O297   2.416       .  S
Cd292       O293   2.492       .  S
Cd292       O296   2.481       .  S
Cd292       O294   2.434       .  S
C295        O299   1.262       .  A
C295        C824   1.469       .  S
O300        C303   1.264       .  A
O300       Cd305   2.484       .  S
C301        O310   1.265       .  A
C301        O306   1.265       .  A
C301        C789   1.476       .  S
O302        C308   1.266       .  A
O302       Cd305   2.499       .  S
C303        O311   1.263       .  A
C303        C806   1.434       .  S
C304        O309   1.265       .  A
C304        O307   1.263       .  A
C304        C819   1.436       .  S
Cd305       O312   2.439       .  S
Cd305       O311   2.444       .  S
Cd305       O310   2.434       .  S
Cd305       O306   2.489       .  S
Cd305       O309   2.490       .  S
Cd305       O307   2.448       .  S
C308        O312   1.265       .  A
C308        C785   1.479       .  S
O313        C316   1.269       .  A
O313       Cd318   2.500       .  S
C314        O323   1.263       .  A
C314        O319   1.267       .  A
C314        C781   1.439       .  S
O315        C321   1.269       .  A
O315       Cd318   2.508       .  S
C316        O324   1.266       .  A
C316        C772   1.482       .  S
C317        O322   1.269       .  A
C317        O320   1.266       .  A
C317        C811   1.485       .  S
Cd318       O325   2.416       .  S
Cd318       O324   2.433       .  S
Cd318       O323   2.443       .  S
Cd318       O319   2.501       .  S
Cd318       O322   2.505       .  S
Cd318       O320   2.453       .  S
C321        O325   1.261       .  A
C321        C784   1.436       .  S
O326        C329   1.270       .  A
O326       Cd331   2.502       .  S
C327        O336   1.262       .  A
C327        O332   1.269       .  A
C327        C768   1.436       .  S
O328        C334   1.269       .  A
O328       Cd331   2.499       .  S
C329        O337   1.266       .  A
C329       C1013   1.486       .  S
C330        O335   1.270       .  A
C330        O333   1.266       .  A
C330        C758   1.483       .  S
Cd331       O338   2.427       .  S
Cd331       O337   2.444       .  S
Cd331       O336   2.425       .  S
Cd331       O332   2.497       .  S
Cd331       O335   2.492       .  S
Cd331       O333   2.444       .  S
C334        O338   1.263       .  A
C334        C769   1.438       .  S
O339        C342   1.266       .  A
O339       Cd344   2.497       .  S
C340        O349   1.264       .  A
C340        O345   1.266       .  A
C340        C767   1.436       .  S
O341        C347   1.266       .  A
O341       Cd344   2.486       .  S
C342        O350   1.264       .  A
C342        C753   1.476       .  S
C343        O348   1.265       .  A
C343        O346   1.264       .  A
C343        C783   1.438       .  S
Cd344       O351   2.439       .  S
Cd344       O350   2.428       .  S
Cd344       O349   2.438       .  S
Cd344       O345   2.488       .  S
Cd344       O348   2.489       .  S
Cd344       O346   2.456       .  S
C347        O351   1.265       .  A
C347        C749   1.477       .  S
O352        C355   1.271       .  A
O352       Cd357   2.494       .  S
C353        O362   1.264       .  A
C353        O358   1.269       .  A
C353        C770   1.438       .  S
O354        C360   1.272       .  A
O354       Cd357   2.492       .  S
C355        O363   1.263       .  A
C355        C790   1.470       .  S
C356        O361   1.270       .  A
C356        O359   1.263       .  A
C356        C782   1.438       .  S
Cd357       O364   2.419       .  S
Cd357       O363   2.407       .  S
Cd357       O362   2.426       .  S
Cd357       O358   2.494       .  S
Cd357       O361   2.504       .  S
Cd357       O359   2.416       .  S
C360        O364   1.264       .  A
C360       C1002   1.472       .  S
O365        C368   1.269       .  A
O365       Cd370   2.508       .  S
C366        O375   1.261       .  A
C366        O371   1.268       .  A
C366        C747   1.439       .  S
O367        C373   1.267       .  A
O367       Cd370   2.494       .  S
C368        O376   1.266       .  A
C368        C736   1.486       .  S
C369        O374   1.267       .  A
C369        O372   1.266       .  A
C369        C797   1.482       .  S
Cd370       O377   2.421       .  S
Cd370       O376   2.450       .  S
Cd370       O375   2.436   1_545  S
Cd370       O371   2.514   1_545  S
Cd370       O374   2.488   1_545  S
Cd370       O372   2.454   1_545  S
C373        O377   1.262       .  A
C373        C745   1.433       .  S
O378        C381   1.268       .  A
O378       Cd383   2.489       .  S
C379        O388   1.262       .  A
C379        O384   1.269       .  A
C379        C729   1.466       .  S
O380        C386   1.267       .  A
O380       Cd383   2.483       .  S
C381        O389   1.264       .  A
C381        C746   1.433       .  S
C382        O387   1.270       .  A
C382        O385   1.264       .  A
C382        C725   1.470       .  S
Cd383       O390   2.425       .  S
Cd383       O389   2.417       .  S
Cd383       O388   2.408       .  S
Cd383       O384   2.487       .  S
Cd383       O387   2.487       .  S
Cd383       O385   2.414       .  S
C386        O390   1.263       .  A
C386        C733   1.433       .  S
O391        C394   1.269       .  A
O391       Cd396   2.495   1_565  S
C392        O401   1.262       .  A
C392        O397   1.268       .  A
C392        C734   1.433       .  S
O393        C399   1.269       .  A
O393       Cd396   2.499   1_565  S
C394        O402   1.266       .  A
C394       C1044   1.483       .  S
C395        O400   1.269       .  A
C395        O398   1.265       .  A
C395        C714   1.483       .  S
Cd396       O403   2.424   1_545  S
Cd396       O402   2.441   1_545  S
Cd396       O401   2.413       .  S
Cd396       O397   2.495       .  S
Cd396       O400   2.504       .  S
Cd396       O398   2.442       .  S
C399        O403   1.262       .  A
C399        C724   1.437       .  S
O404        C407   1.269       .  A
O404       Cd409   2.478       .  S
C405        O414   1.264       .  A
C405        O410   1.269       .  A
C405        C748   1.439       .  S
O406        C412   1.271       .  A
O406       Cd409   2.505       .  S
C407        O415   1.263       .  A
C407       C1006   1.468       .  S
C408        O413   1.269       .  A
C408        O411   1.264       .  A
C408        C723   1.438       .  S
Cd409       O416   2.414       .  S
Cd409       O415   2.420       .  S
Cd409       O414   2.427       .  S
Cd409       O410   2.494       .  S
Cd409       O413   2.497       .  S
Cd409       O411   2.431       .  S
C412        O416   1.263       .  A
C412        C786   1.472       .  S
O417        C420   1.269       .  A
O417       Cd422   2.504       .  S
C418        O427   1.266       .  A
C418        O423   1.270       .  A
C418        C717   1.483       .  S
O419        C425   1.268       .  A
O419       Cd422   2.498       .  S
C420        O428   1.262       .  A
C420        C711   1.437       .  S
C421        O426   1.270       .  A
C421        O424   1.266       .  A
C421        C700   1.484       .  S
Cd422       O429   2.425       .  S
Cd422       O428   2.417       .  S
Cd422       O427   2.431       .  S
Cd422       O423   2.506       .  S
Cd422       O426   2.504       .  S
Cd422       O424   2.435       .  S
C425        O429   1.262       .  A
C425        C709   1.436       .  S
O430        C433   1.267       .  A
O430       Cd435   2.491       .  S
C431        O440   1.266       .  A
C431        O436   1.268       .  A
C431        C686   1.482       .  S
O432        C438   1.268       .  A
O432       Cd435   2.502       .  S
C433        O441   1.261       .  A
C433        C696   1.430       .  S
C434        O439   1.268       .  A
C434        O437   1.266       .  A
C434        C775   1.483       .  S
Cd435       O442   2.422       .  S
Cd435       O441   2.410       .  S
Cd435       O440   2.442       .  S
Cd435       O436   2.488       .  S
Cd435       O439   2.493       .  S
Cd435       O437   2.447       .  S
C438        O442   1.261       .  A
C438        C697   1.435       .  S
O443        C446   1.266       .  A
O443       Cd448   2.498       .  S
C444        O453   1.263       .  A
C444        O449   1.269       .  A
C444        C681   1.471       .  S
O445        C451   1.267       .  A
O445       Cd448   2.489       .  S
C446        O454   1.263       .  A
C446        C712   1.438       .  S
C447        O452   1.266       .  A
C447        O450   1.263       .  A
C447        C698   1.435       .  S
Cd448       O455   2.420       .  S
Cd448       O454   2.443       .  S
Cd448       O453   2.431       .  S
Cd448       O449   2.491       .  S
Cd448       O452   2.488       .  S
Cd448       O450   2.434       .  S
C451        O455   1.265       .  A
C451        C677   1.476       .  S
O456        C459   1.267       .  A
O456       Cd461   2.481       .  S
C457        O466   1.264       .  A
C457        O462   1.265       .  A
C457        C695   1.431       .  S
O458        C464   1.267       .  A
O458       Cd461   2.495       .  S
C459        O467   1.266       .  A
C459        C730   1.473       .  S
C460        O465   1.269       .  A
C460        O463   1.263       .  A
C460        C754   1.470       .  S
Cd461       O468   2.426       .  S
Cd461       O467   2.413       .  S
Cd461       O466   2.430       .  S
Cd461       O462   2.473       .  S
Cd461       O465   2.491       .  S
Cd461       O463   2.427       .  S
C464        O468   1.262       .  A
C464        C710   1.436       .  S
O469        C472   1.270       .  A
O469       Cd474   2.500       .  S
C470        O479   1.262       .  A
C470        O475   1.270       .  A
C470        C673   1.438       .  S
O471        C477   1.270       .  A
O471       Cd474   2.501       .  S
C472        O480   1.267       .  A
C472        C664   1.485       .  S
C473        O478   1.270       .  A
C473        O476   1.267       .  A
C473        C869   1.489       .  S
Cd474       O481   2.417       .  S
Cd474       O480   2.444       .  S
Cd474       O479   2.424   1_556  S
Cd474       O475   2.505   1_556  S
Cd474       O478   2.498   1_556  S
Cd474       O476   2.462   1_556  S
C477        O481   1.262       .  A
C477        C675   1.436       .  S
O482        C485   1.267       .  A
O482       Cd487   2.496       .  S
C483        O492   1.264       .  A
C483        O488   1.266       .  A
C483        C661   1.436       .  S
O484        C490   1.269       .  A
O484       Cd487   2.502       .  S
C485        O493   1.265       .  A
C485        C848   1.477       .  S
C486        O491   1.266       .  A
C486        O489   1.263       .  A
C486        C674   1.439       .  S
Cd487       O494   2.420       .  S
Cd487       O493   2.423       .  S
Cd487       O492   2.436       .  S
Cd487       O488   2.493       .  S
Cd487       O491   2.501       .  S
Cd487       O489   2.441       .  S
C490        O494   1.262       .  A
C490        C898   1.471       .  S
O495        C498   1.270       .  A
O495       Cd500   2.494   1_554  S
C496        O505   1.262       .  A
C496        O501   1.269       .  A
C496        C659   1.435       .  S
O497        C503   1.268       .  A
O497       Cd500   2.494   1_554  S
C498        O506   1.266       .  A
C498        C933   1.480       .  S
C499        O504   1.269       .  A
C499        O502   1.267       .  A
C499        C689   1.481       .  S
Cd500       O507   2.423   1_556  S
Cd500       O506   2.428   1_556  S
Cd500       O505   2.417       .  S
Cd500       O501   2.497       .  S
Cd500       O504   2.484       .  S
Cd500       O502   2.439       .  S
C503        O507   1.263       .  A
C503        C662   1.436       .  S
O508        C511   1.266       .  A
O508       Cd513   2.486       .  S
C509        O518   1.264       .  A
C509        O514   1.265       .  A
C509        C676   1.437       .  S
O510        C516   1.266       .  A
O510       Cd513   2.482       .  S
C511        O519   1.264       .  A
C511        C682   1.476       .  S
C512        O517   1.264       .  A
C512        O515   1.263       .  A
C512        C660   1.435       .  S
Cd513       O520   2.427       .  S
Cd513       O519   2.439       .  S
Cd513       O518   2.445       .  S
Cd513       O514   2.488       .  S
Cd513       O517   2.481       .  S
Cd513       O515   2.447       .  S
C516        O520   1.265       .  A
C516        C655   1.474       .  S
O521        C524   1.268       .  A
O521       Cd526   2.500   1_655  S
C522        O531   1.266       .  A
C522        O527   1.269       .  A
C522        C761   1.483       .  S
O523        C529   1.268       .  A
O523       Cd526   2.497       .  S
C524        O532   1.262       .  A
C524        C653   1.435       .  S
C525        O530   1.268       .  A
C525        O528   1.267       .  A
C525        C642   1.483       .  S
Cd526       O533   2.424       .  S
Cd526       O532   2.417   1_455  S
Cd526       O531   2.447       .  S
Cd526       O527   2.493       .  S
Cd526       O530   2.487   1_455  S
Cd526       O528   2.455   1_455  S
C529        O533   1.262       .  A
C529        C651   1.436       .  S
O534        C537   1.269       .  A
O534       Cd539   2.504       .  S
C535        O544   1.267       .  A
C535        O540   1.269       .  A
C535        C667   1.484       .  S
O536        C542   1.269       .  A
O536       Cd539   2.503   1_655  S
C537        O545   1.262       .  A
C537        C638   1.437       .  S
C538        O543   1.269       .  A
C538        O541   1.267       .  A
C538        C739   1.485       .  S
Cd539       O546   2.417   1_455  S
Cd539       O545   2.421       .  S
Cd539       O544   2.446   1_455  S
Cd539       O540   2.493   1_455  S
Cd539       O543   2.495       .  S
Cd539       O541   2.450       .  S
C542        O546   1.262       .  A
C542        C640   1.436       .  S
O547        C550   1.267       .  A
O547       Cd552   2.489       .  S
C548        O557   1.265       .  A
C548        O553   1.267       .  A
C548        C726   1.477       .  S
O549        C555   1.269       .  A
O549       Cd552   2.494       .  S
C550        O558   1.264       .  A
C550        C652   1.437       .  S
C551        O556   1.267       .  A
C551        O554   1.263       .  A
C551        C637   1.437       .  S
Cd552       O559   2.426       .  S
Cd552       O558   2.437       .  S
Cd552       O557   2.426       .  S
Cd552       O553   2.498       .  S
Cd552       O556   2.496       .  S
Cd552       O554   2.436       .  S
C555        O559   1.263       .  A
C555        C750   1.471       .  S
O560        C563   1.268       .  A
O560       Cd565   2.495       .  S
C561        O570   1.263       .  A
C561        O566   1.270       .  A
C561        C656   1.467       .  S
O562        C568   1.270       .  A
O562       Cd565   2.484       .  S
C563        O571   1.263       .  A
C563        C654   1.436       .  S
C564        O569   1.267       .  A
C564        O567   1.264       .  A
C564        C639   1.436       .  S
Cd565       O572   2.401       .  S
Cd565       O571   2.424       .  S
Cd565       O570   2.409       .  S
Cd565       O566   2.484       .  S
Cd565       O569   2.490       .  S
Cd565       O567   2.433       .  S
C568        O572   1.263       .  A
C568        C633   1.466       .  S
O573        C576   1.270       .  A
O573       Cd578   2.495       .  S
C574        O583   1.262       .  A
C574        O579   1.269       .  A
C574        C629   1.437       .  S
O575        C581   1.270       .  A
O575       Cd578   2.500       .  S
C576        O584   1.266       .  A
C576        C909   1.482       .  S
C577        O582   1.270       .  A
C577        O580   1.266       .  A
C577        C645   1.481       .  S
Cd578       O585   2.410       .  S
Cd578       O584   2.436       .  S
Cd578       O583   2.419       .  S
Cd578       O579   2.496       .  S
Cd578       O582   2.491       .  S
Cd578       O580   2.430       .  S
C581        O585   1.263       .  A
C581        C631   1.435       .  S
O586        C589   1.269       .  A
O586       Cd591   2.500       .  S
C587        O596   1.261       .  A
C587        O592   1.268       .  A
C587        C625   1.436       .  S
O588        C594   1.268       .  A
O588       Cd591   2.488       .  S
C589        O597   1.266       .  A
C589        C703   1.483       .  S
C590        O595   1.267       .  A
C590        O593   1.265       .  A
C590        C883   1.479       .  S
Cd591       O598   2.411       .  S
Cd591       O597   2.437       .  S
Cd591       O596   2.427       .  S
Cd591       O592   2.506       .  S
Cd591       O595   2.481       .  S
Cd591       O593   2.442       .  S
C594        O598   1.263       .  A
C594        C628   1.431       .  S
O599        C602   1.268       .  A
O599       Cd604   2.489       .  S
C600        O609   1.264       .  A
C600        O605   1.266       .  A
C600        C632   1.436       .  S
O601        C607   1.267       .  A
O601       Cd604   2.485       .  S
C602        O610   1.262       .  A
C602        C843   1.470       .  S
C603        O608   1.266       .  A
C603        O606   1.263       .  A
C603        C626   1.437       .  S
Cd604       O611   2.434       .  S
Cd604       O610   2.425       .  S
Cd604       O609   2.435       .  S
Cd604       O605   2.491       .  S
Cd604       O608   2.497       .  S
Cd604       O606   2.439       .  S
C607        O611   1.266       .  A
C607        C894   1.477       .  S
O612        C615   1.265       .  A
O612       Cd617   2.482       .  S
C613        O622   1.265       .  A
C613        O618   1.266       .  A
C613        C634   1.474       .  S
O614        C620   1.266       .  A
O614       Cd617   2.497       .  S
C615        O623   1.263       .  A
C615        C627   1.432       .  S
C616        O621   1.268       .  A
C616        O619   1.262       .  A
C616        C678   1.470       .  S
Cd617       O624   2.446       .  S
Cd617       O623   2.433       .  S
Cd617       O622   2.414       .  S
Cd617       O618   2.488       .  S
Cd617       O621   2.498       .  S
Cd617       O619   2.426       .  S
C620        O624   1.263       .  A
C620        C630   1.438       .  S
C625        C626   1.207       .  T
C627        C628   1.204       .  T
C629        C630   1.207       .  T
C631        C632   1.206       .  T
C633        C634   1.341       .  D
C633        H635   1.087       .  S
C634        H636   1.086       .  S
C637        C638   1.207       .  T
C639        C640   1.206       .  T
C641        C642   1.407       .  A
C641        C646   1.403       .  A
C641        H647   1.083       .  S
C642        C643   1.405       .  A
C643        C644   1.397       .  A
C643        H648   1.083       .  S
C644        C645   1.405       .  A
C644        H649   1.083       .  S
C645        C646   1.405       .  A
C646        H650   1.083       .  S
C651        C652   1.207       .  T
C653        C654   1.206       .  T
C655        C656   1.341       .  D
C655        H657   1.086       .  S
C656        H658   1.087       .  S
C659        C660   1.206       .  T
C661        C662   1.206       .  T
C663        C664   1.407       .  A
C663        C668   1.405       .  A
C663        H669   1.083       .  S
C664        C665   1.405       .  A
C665        C666   1.397       .  A
C665        H670   1.083       .  S
C666        C667   1.405       .  A
C666        H671   1.083       .  S
C667        C668   1.407       .  A
C668        H672   1.083       .  S
C673        C674   1.208       .  T
C675        C676   1.206       .  T
C677        C678   1.343       .  D
C677        H679   1.086       .  S
C678        H680   1.087       .  S
C681        C682   1.343       .  D
C681        H683   1.087       .  S
C682        H684   1.086       .  S
C685        C686   1.404       .  A
C685        C690   1.395       .  A
C685        H691   1.083       .  S
C686        C687   1.407       .  A
C687        C688   1.403       .  A
C687        H692   1.083       .  S
C688        C689   1.406       .  A
C688        H693   1.083       .  S
C689        C690   1.404       .  A
C690        H694   1.083       .  S
C695        C696   1.203       .  T
C697        C698   1.206       .  T
C699        C700   1.407       .  A
C699        C704   1.406       .  A
C699        H705   1.083       .  S
C700        C701   1.404       .  A
C701        C702   1.394       .  A
C701        H706   1.083       .  S
C702        C703   1.404       .  A
C702        H707   1.083       .  S
C703        C704   1.407       .  A
C704        H708   1.083       .  S
C709        C710   1.206       .  T
C711        C712   1.207       .  T
C713        C714   1.404       .  A
C713        C718   1.395       .  A
C713        H719   1.083       .  S
C714        C715   1.407       .  A
C715        C716   1.405       .  A
C715        H720   1.083       .  S
C716        C717   1.407       .  A
C716        H721   1.083       .  S
C717        C718   1.404       .  A
C718        H722   1.083       .  S
C723        C724   1.207       .  T
C725        C726   1.343       .  D
C725        H727   1.087       .  S
C726        H728   1.086       .  S
C729        C730   1.341       .  D
C729        H731   1.087       .  S
C730        H732   1.086       .  S
C733        C734   1.205       .  T
C735        C736   1.407       .  A
C735        C740   1.405       .  A
C735        H741   1.083       .  S
C736        C737   1.406       .  A
C737        C738   1.397       .  A
C737        H742   1.083       .  S
C738        C739   1.405       .  A
C738        H743   1.083       .  S
C739        C740   1.407       .  A
C740        H744   1.083       .  S
C745        C746   1.205       .  T
C747        C748   1.208       .  T
C749        C750   1.343       .  D
C749        H751   1.086       .  S
C750        H752   1.087       .  S
C753        C754   1.343       .  D
C753        H755   1.086       .  S
C754        H756   1.087       .  S
C757        C758   1.406       .  A
C757        C762   1.403       .  A
C757        H763   1.083       .  S
C758        C759   1.405       .  A
C759        C760   1.397       .  A
C759        H764   1.083       .  S
C760        C761   1.405       .  A
C760        H765   1.083       .  S
C761        C762   1.406       .  A
C762        H766   1.083       .  S
C767        C768   1.206       .  T
C769        C770   1.208       .  T
C771        C772   1.404       .  A
C771        C776   1.395       .  A
C771        H777   1.083       .  S
C772        C773   1.407       .  A
C773        C774   1.405       .  A
C773        H778   1.083       .  S
C774        C775   1.408       .  A
C774        H779   1.083       .  S
C775        C776   1.404       .  A
C776        H780   1.083       .  S
C781        C782   1.208       .  T
C783        C784   1.207       .  T
C785        C786   1.343       .  D
C785        H787   1.086       .  S
C786        H788   1.087       .  S
C789        C790   1.341       .  D
C789        H791   1.086       .  S
C790        H792   1.087       .  S
C793        C794   1.406       .  A
C793        C798   1.404       .  A
C793        H799   1.083       .  S
C794        C795   1.405       .  A
C795        C796   1.396       .  A
C795        H800   1.083       .  S
C796        C797   1.404       .  A
C796        H801   1.083       .  S
C797        C798   1.407       .  A
C798        H802   1.083       .  S
C803        C804   1.206       .  T
C805        C806   1.205       .  T
C807        C808   1.405       .  A
C807        C812   1.397       .  A
C807        H813   1.083       .  S
C808        C809   1.406       .  A
C809        C810   1.405       .  A
C809        H814   1.083       .  S
C810        C811   1.407       .  A
C810        H815   1.083       .  S
C811        C812   1.405       .  A
C812        H816   1.083       .  S
C817        C818   1.207       .  T
C819        C820   1.206       .  T
C821        C822   1.207       .  T
C823        C824   1.342       .  D
C823        H825   1.086       .  S
C824        H826   1.087       .  S
C827        C828   1.205       .  T
C829        C830   1.407       .  A
C829        C834   1.403       .  A
C829        H835   1.083       .  S
C830        C831   1.404       .  A
C831        C832   1.395       .  A
C831        H836   1.083       .  S
C832        C833   1.405       .  A
C832        H837   1.083       .  S
C833        C834   1.407       .  A
C834        H838   1.083       .  S
C839        C840   1.208       .  T
C841        C842   1.206       .  T
C843        C844   1.342       .  D
C843        H845   1.087       .  S
C844        H846   1.086       .  S
C847        C848   1.343       .  D
C847        H849   1.087       .  S
C848        H850   1.086       .  S
C851        C852   1.343       .  D
C851        H853   1.086       .  S
C852        H854   1.087       .  S
C855        C856   1.403       .  A
C855        C860   1.393       .  A
C855        H861   1.083       .  S
C856        C857   1.408       .  A
C857        C858   1.405       .  A
C857        H862   1.083       .  S
C858        C859   1.407       .  A
C858        H863   1.083       .  S
C859        C860   1.404       .  A
C860        H864   1.083       .  S
C865        C866   1.407       .  A
C865        C870   1.405       .  A
C865        H871   1.083       .  S
C866        C867   1.407       .  A
C867        C868   1.400       .  A
C867        H872   1.083       .  S
C868        C869   1.406       .  A
C868        H873   1.083       .  S
C869        C870   1.407       .  A
C870        H874   1.083       .  S
C875        C876   1.204       .  T
C877        C878   1.210       .  T
C879        C880   1.404       .  A
C879        C884   1.394       .  A
C879        H885   1.083       .  S
C880        C881   1.405       .  A
C881        C882   1.402       .  A
C881        H886   1.083       .  S
C882        C883   1.406       .  A
C882        H887   1.083       .  S
C883        C884   1.404       .  A
C884        H888   1.083       .  S
C889        C890   1.206       .  T
C891        C892   1.205       .  T
C893        C894   1.343       .  D
C893        H895   1.087       .  S
C894        H896   1.086       .  S
C897        C898   1.343       .  D
C897        H899   1.086       .  S
C898        H900   1.087       .  S
C901        C902   1.344       .  D
C901        H903   1.087       .  S
C902        H904   1.086       .  S
C905        C906   1.404       .  A
C905        C910   1.395       .  A
C905        H911   1.083       .  S
C906        C907   1.407       .  A
C907        C908   1.403       .  A
C907        H912   1.083       .  S
C908        C909   1.406       .  A
C908        H913   1.083       .  S
C909        C910   1.405       .  A
C910        H914   1.083       .  S
C915        C916   1.405       .  A
C915        C920   1.395       .  A
C915        H921   1.083       .  S
C916        C917   1.406       .  A
C917        C918   1.402       .  A
C917        H922   1.083       .  S
C918        C919   1.406       .  A
C918        H923   1.083       .  S
C919        C920   1.404       .  A
C920        H924   1.083       .  S
C925        C926   1.205       .  T
C927        C928   1.204       .  T
C929        C930   1.406       .  A
C929        C934   1.403       .  A
C929        H935   1.083       .  S
C930        C931   1.404       .  A
C931        C932   1.394       .  A
C931        H936   1.083       .  S
C932        C933   1.404       .  A
C932        H937   1.083       .  S
C933        C934   1.406       .  A
C934        H938   1.083       .  S
C939        C940   1.209       .  T
C941        C942   1.205       .  T
C943        C944   1.340       .  D
C943        H945   1.086       .  S
C944        H946   1.087       .  S
C947        C948   1.343       .  D
C947        H949   1.086       .  S
C948        H950   1.087       .  S
C951        C952   1.341       .  D
C951        H953   1.086       .  S
C952        H954   1.087       .  S
C955        C956   1.405       .  A
C955        C960   1.396       .  A
C955        H961   1.083       .  S
C956        C957   1.406       .  A
C957        C958   1.404       .  A
C957        H962   1.083       .  S
C958        C959   1.407       .  A
C958        H963   1.083       .  S
C959        C960   1.404       .  A
C960        H964   1.083       .  S
C965        C966   1.407       .  A
C965        C970   1.405       .  A
C965        H971   1.083       .  S
C966        C967   1.405       .  A
C967        C968   1.397       .  A
C967        H972   1.083       .  S
C968        C969   1.405       .  A
C968        H973   1.083       .  S
C969        C970   1.407       .  A
C970        H974   1.083       .  S
C975        C976   1.207       .  T
C977        C978   1.206       .  T
C979        C980   1.406       .  A
C979        C984   1.402       .  A
C979        H985   1.083       .  S
C980        C981   1.405       .  A
C981        C982   1.396       .  A
C981        H986   1.083       .  S
C982        C983   1.405       .  A
C982        H987   1.083       .  S
C983        C984   1.406       .  A
C984        H988   1.083       .  S
C989        C990   1.205       .  T
C991        C992   1.206       .  T
C993        C994   1.343       .  D
C993        H995   1.088       .  S
C994        H996   1.087       .  S
C997        C998   1.343       .  D
C997        H999   1.086       .  S
C998       H1000   1.087       .  S
C1001      C1002   1.341       .  D
C1001      H1003   1.086       .  S
C1002      H1004   1.087       .  S
C1005      C1006   1.342       .  D
C1005      H1007   1.086       .  S
C1006      H1008   1.087       .  S
C1009      C1010   1.406       .  A
C1009      C1014   1.397       .  A
C1009      H1015   1.083       .  S
C1010      C1011   1.407       .  A
C1011      C1012   1.406       .  A
C1011      H1016   1.083       .  S
C1012      C1013   1.408       .  A
C1012      H1017   1.083       .  S
C1013      C1014   1.405       .  A
C1014      H1018   1.083       .  S
C1019      C1020   1.406       .  A
C1019      C1024   1.403       .  A
C1019      H1025   1.083       .  S
C1020      C1021   1.406       .  A
C1021      C1022   1.398       .  A
C1021      H1026   1.083       .  S
C1022      C1023   1.405       .  A
C1022      H1027   1.083       .  S
C1023      C1024   1.407       .  A
C1024      H1028   1.083       .  S
C1029      C1030   1.209       .  T
C1031      C1032   1.206       .  T
C1033      C1034   1.404       .  A
C1033      C1038   1.396       .  A
C1033      H1039   1.083       .  S
C1034      C1035   1.406       .  A
C1035      C1036   1.403       .  A
C1035      H1040   1.083       .  S
C1036      C1037   1.406       .  A
C1036      H1041   1.083       .  S
C1037      C1038   1.405       .  A
C1038      H1042   1.083       .  S
C1043      C1044   1.405       .  A
C1043      C1048   1.396       .  A
C1043      H1049   1.083       .  S
C1044      C1045   1.406       .  A
C1045      C1046   1.403       .  A
C1045      H1050   1.083       .  S
C1046      C1047   1.406       .  A
C1046      H1051   1.083       .  S
C1047      C1048   1.405       .  A
C1048      H1052   1.083       .  S
C1053      C1054   1.209       .  T
C1055      C1056   1.205       .  T
