geometry optimzed in LAMMPS
_audit_creation_date              2020-11-30 
_audit_creation_method            'lammps2cif' 
_symmetry_space_group_name_H-M    'P1' 
_symmetry_Int_Tables_number       1 
_symmetry_cell_setting            triclinic 
loop_ 
_symmetry_equiv_pos_as_xyz 
  x,y,z 
_cell_length_a                    54.29297446 
_cell_length_b                    54.29742134630694 
_cell_length_c                    54.300777853516074 
_cell_angle_alpha                 90.03759387515046 
_cell_angle_beta                  89.9780104053206 
_cell_angle_gamma                 90.1019380750153 
loop_ 
_atom_site_label 
_atom_site_type_symbol 
_atom_site_fract_x 
_atom_site_fract_y 
_atom_site_fract_z 
_atom_site_charge 
Fe1        Fe  0.82580048  0.87252338  0.62868627     1.65800
Fe2        Fe  0.87006717  0.87132681  0.67376451     1.73200
Fe3        Fe  0.86935334  0.82672796  0.62900839     1.54400
O4          O  0.83559237  0.80963803  0.62582923    -0.81400
O5          O  0.90560476  0.86847658  0.66027091    -0.79700
O6          O  0.80740513  0.83941567  0.62421347    -0.83900
O7          O  0.83995397  0.87066809  0.59344089    -0.78800
O8          O  0.87336617  0.80897039  0.66235644    -0.80600
O9          O  0.86940724  0.90678168  0.66026101    -0.83300
C10         C  0.85520923  0.85670907  0.58261966     0.97500
C11         C  0.81348605  0.81685460  0.62384196     1.04900
O12         O  0.85509507  0.85689154  0.64377233    -1.12300
O13         O  0.83649433  0.87565069  0.69116429    -0.74700
O14         O  0.80764432  0.87620702  0.66200641    -0.78200
O15         O  0.86712875  0.83996247  0.59360507    -0.78900
C16         C  0.81416568  0.87690791  0.68443772     0.96400
O17         O  0.84041886  0.90758637  0.63123427    -0.76900
O18         O  0.87245645  0.83793010  0.69135658    -0.82000
C19         C  0.91613444  0.85589487  0.64361746     0.99000
C20         C  0.87371496  0.81561855  0.68471419     1.04900
O21         O  0.90482765  0.84027303  0.63039987    -0.77700
C22         C  0.85684916  0.91804527  0.64416296     1.03200
Fe23       Fe  0.63467562  0.82723120  0.86357607     1.65800
Fe24       Fe  0.67986793  0.87145947  0.86469623     1.73200
Fe25       Fe  0.63629693  0.87171672  0.81882082     1.54400
O26         O  0.63396705  0.83834118  0.80073566    -0.81400
O27         O  0.66672589  0.90702890  0.86188059    -0.79700
O28         O  0.63091216  0.80981825  0.83005583    -0.83900
O29         O  0.59960165  0.84151695  0.86144167    -0.78800
O30         O  0.67033103  0.87626180  0.80227801    -0.80600
O31         O  0.66500609  0.87012414  0.89986019    -0.83300
C32         C  0.58889200  0.85665296  0.84728588     0.97500
C33         C  0.63160471  0.81614871  0.80761017     1.04900
O34         O  0.65021103  0.85688543  0.84909463    -1.12300
O35         O  0.69692913  0.83783189  0.86907859    -0.74700
O36         O  0.66768785  0.80907567  0.86699383    -0.78200
O37         O  0.60019377  0.86885924  0.83084349    -0.78900
C38         C  0.69003971  0.81551922  0.86882829     0.96400
O39         O  0.63665281  0.84040738  0.89920836    -0.76900
O40         O  0.69878034  0.87431034  0.83171101    -0.82000
C41         C  0.65029067  0.91782994  0.84929198     0.99000
C42         C  0.69261294  0.87618100  0.80926299     1.04900
O43         O  0.63717959  0.90687228  0.83331568    -0.77700
C44         C  0.64900596  0.85674915  0.91047610     1.03200
Fe45       Fe  0.86912295  0.63703477  0.81827091     1.65800
Fe46       Fe  0.86883633  0.68216325  0.86263446     1.73200
Fe47       Fe  0.82392980  0.63765397  0.86244994     1.54400
O48         O  0.80661934  0.63403100  0.82890241    -0.81400
O49         O  0.86640205  0.66884427  0.89815925    -0.79700
O50         O  0.83592775  0.63357429  0.80019611    -0.83900
O51         O  0.86680208  0.60168792  0.83210863    -0.78800
O52         O  0.80637480  0.67115580  0.86563465    -0.80600
O53         O  0.90415354  0.66841047  0.86108785    -0.83300
C54         C  0.85351726  0.59096554  0.84805614     0.97500
C55         C  0.81349922  0.63299623  0.80663527     1.04900
O56         O  0.85404425  0.65221362  0.84786311    -1.12300
O57         O  0.87278214  0.69949298  0.82911279    -0.74700
O58         O  0.87328405  0.67018774  0.80039457    -0.78200
O59         O  0.83735125  0.60211784  0.86071691    -0.78900
C60         C  0.87407647  0.69258817  0.80685778     0.96400
O61         O  0.90425524  0.63906712  0.83232394    -0.76900
O62         O  0.83557120  0.69999939  0.86573424    -0.82000
C63         C  0.85322323  0.65290566  0.90904599     0.99000
C64         C  0.81317599  0.69347363  0.86639005     1.04900
O65         O  0.83725065  0.63985744  0.89800911    -0.77700
C66         C  0.91507476  0.65220452  0.84831599     1.03200
Fe67       Fe  0.67930735  0.63781901  0.62949606     1.65800
Fe68       Fe  0.63396404  0.63791377  0.67352317     1.73200
Fe69       Fe  0.63493970  0.68269104  0.62887919     1.54400
O70         O  0.66859384  0.70020394  0.62508437    -0.81400
O71         O  0.59902843  0.63915919  0.65869888    -0.79700
O72         O  0.69741193  0.67112218  0.62651092    -0.83900
O73         O  0.66628387  0.64020839  0.59393411    -0.78800
O74         O  0.63153363  0.70051094  0.66214202    -0.80600
O75         O  0.63691687  0.60223206  0.66045157    -0.83300
C76         C  0.64994225  0.65269874  0.58293014     0.97500
C77         C  0.69094584  0.69348008  0.62486978     1.04900
O78         O  0.64935187  0.65275930  0.64392109    -1.12300
O79         O  0.66698147  0.63517429  0.69196895    -0.74700
O80         O  0.69623694  0.63383597  0.66319302    -0.78200
O81         O  0.63669172  0.66862727  0.59367322    -0.78900
C82         C  0.68935960  0.63367603  0.68549591     0.96400
O83         O  0.66528496  0.60243902  0.63079549    -0.76900
O84         O  0.62922366  0.67142802  0.69095792    -0.82000
C85         C  0.58831200  0.65266975  0.64297043     0.99000
C86         C  0.62932473  0.69382524  0.68438029     1.04900
O87         O  0.59933721  0.66936815  0.63088482    -0.77700
C88         C  0.64959852  0.59135670  0.64411796     1.03200
Fe89       Fe  0.87038704  0.13659945  0.67508920     1.65800
Fe90       Fe  0.82593538  0.13747120  0.63014511     1.73200
Fe91       Fe  0.87115236  0.18165628  0.63069098     1.54400
O92         O  0.87558733  0.19866024  0.66448333    -0.81400
O93         O  0.83999400  0.13919122  0.59484718    -0.79700
O94         O  0.87352168  0.16967648  0.69342126    -0.83900
O95         O  0.90611512  0.13895662  0.66204234    -0.78800
O96         O  0.83794648  0.20013544  0.62785491    -0.80600
O97         O  0.83897661  0.10179539  0.63240396    -0.83300
C98         C  0.91709181  0.15122951  0.64544863     0.97500
C99         C  0.87546870  0.19197172  0.68686806     1.04900
O100        O  0.85589485  0.15184757  0.64523864    -1.12300
O101        O  0.80774043  0.13429089  0.66335941    -0.74700
O102        O  0.83674054  0.13250778  0.69227926    -0.78200
O103        O  0.90623756  0.16696712  0.63201971    -0.78900
C104        C  0.81435558  0.13245131  0.68565245     0.96400
O105        O  0.86871519  0.10147356  0.66072235    -0.76900
O106        O  0.80889269  0.17115352  0.62624287    -0.82000
C107        C  0.85564481  0.15260891  0.58380829     0.99000
C108        C  0.81557823  0.19353762  0.62616419     1.04900
O109        O  0.86844694  0.16883412  0.59479032    -0.77700
C110        C  0.85533788  0.09072404  0.64487207     1.03200
Fe111      Fe  0.86954944  0.37075532  0.81942436     1.65800
Fe112      Fe  0.82469478  0.37201554  0.86394596     1.73200
Fe113      Fe  0.86943552  0.32740066  0.86532096     1.54400
O114        O  0.87208165  0.30840010  0.83261157    -0.81400
O115        O  0.83771845  0.36984845  0.89968332    -0.79700
O116        O  0.87331937  0.33664561  0.80286818    -0.83900
O117        O  0.90488670  0.36933151  0.83304992    -0.78800
O118        O  0.83583941  0.31023604  0.87031885    -0.80600
O119        O  0.83911910  0.40715317  0.86205036    -0.83300
C120        C  0.91601612  0.35634026  0.84889113     0.97500
C121        C  0.87356774  0.31443107  0.81012701     1.04900
O122        O  0.85461477  0.35679055  0.84961393    -1.12300
O123        O  0.80734144  0.37614379  0.83037316    -0.74700
O124        O  0.83634023  0.37383570  0.80149393    -0.78200
O125        O  0.90517309  0.34040104  0.86211722    -0.78900
C126        C  0.81407199  0.37607447  0.80803174     0.96400
O127        O  0.86739800  0.40664745  0.83220451    -0.76900
O128        O  0.80655777  0.33875209  0.86711138    -0.82000
C129        C  0.85452965  0.35801048  0.91076254     0.99000
C130        C  0.81338352  0.31660154  0.86976279     1.04900
O131        O  0.86832325  0.34253761  0.90006383    -0.77700
C132        C  0.85493252  0.41784209  0.84853571     1.03200
Fe133      Fe  0.63546419  0.13643129  0.81967818     1.65800
Fe134      Fe  0.68072370  0.13745764  0.86382225     1.73200
Fe135      Fe  0.63536310  0.18145476  0.86406052     1.54400
O136        O  0.63182898  0.19905510  0.83046375    -0.81400
O137        O  0.66727371  0.13940656  0.89941599    -0.79700
O138        O  0.63192077  0.16970050  0.80173456    -0.83900
O139        O  0.60009676  0.13846441  0.83330590    -0.78800
O140        O  0.66853003  0.19948015  0.86792569    -0.80600
O141        O  0.66753058  0.10186896  0.86202057    -0.83300
C142        C  0.58911863  0.15151293  0.84922340     0.97500
C143        C  0.63106316  0.19214766  0.80814474     1.04900
O144        O  0.65047239  0.15172563  0.84924769    -1.12300
O145        O  0.69812136  0.13383895  0.83015445    -0.74700
O146        O  0.66861588  0.13251531  0.80170889    -0.78200
O147        O  0.59998568  0.16770643  0.86207660    -0.78900
C148        C  0.69107865  0.13207391  0.80795589     0.96400
O149        O  0.63760403  0.10122180  0.83389075    -0.76900
O150        O  0.69808506  0.17111582  0.86735755    -0.82000
C151        C  0.65085459  0.15190208  0.91038642     0.99000
C152        C  0.69099718  0.19329760  0.86872313     1.04900
O153        O  0.63742473  0.16760179  0.89946791    -0.77700
C154        C  0.65118685  0.09062844  0.84965651     1.03200
Fe155      Fe  0.63577529  0.37130249  0.67450789     1.65800
Fe156      Fe  0.68072653  0.37236502  0.63001144     1.73200
Fe157      Fe  0.63695014  0.32663960  0.62974981     1.54400
O158        O  0.63389259  0.30871865  0.66321626    -0.81400
O159        O  0.66759245  0.36964883  0.59447884    -0.79700
O160        O  0.63270012  0.33781484  0.69212686    -0.83900
O161        O  0.60049942  0.36859542  0.66077033    -0.78800
O162        O  0.67079736  0.30974844  0.62593934    -0.80600
O163        O  0.66600548  0.40753938  0.63164327    -0.83300
C164        C  0.58988216  0.35534961  0.64473267     0.97500
C165        C  0.63254158  0.31541096  0.68555830     1.04900
O166        O  0.65109020  0.35682997  0.64468201    -1.12300
O167        O  0.69804770  0.37674881  0.66351641    -0.74700
O168        O  0.66889076  0.37565256  0.69234623    -0.78200
O169        O  0.60116319  0.33943950  0.63186060    -0.78900
C170        C  0.69121527  0.37738783  0.68581788     0.96400
O171        O  0.63723233  0.40678584  0.66096378    -0.76900
O172        O  0.69930087  0.33930239  0.62676745    -0.82000
C173        C  0.65165441  0.35659544  0.58342885     0.99000
C174        C  0.69306254  0.31681356  0.62539787     1.04900
O175        O  0.63856641  0.34054171  0.59429544    -0.77700
C176        C  0.64980058  0.41807942  0.64480759     1.03200
Fe177      Fe  0.13503046  0.82365034  0.62822345     1.65800
Fe178      Fe  0.13632004  0.86864240  0.67261777     1.73200
Fe179      Fe  0.17994097  0.86837835  0.62700166     1.54400
O180        O  0.19690010  0.83476162  0.62198801    -0.81400
O181        O  0.13751816  0.90400299  0.65860501    -0.79700
O182        O  0.16824890  0.80548293  0.62517207    -0.83900
O183        O  0.13767273  0.83639467  0.59257195    -0.78800
O184        O  0.19887326  0.87118022  0.65986601    -0.80600
O185        O  0.10048329  0.86595915  0.65994260    -0.83300
C186        C  0.14951498  0.85320431  0.58147571     0.97500
C187        C  0.19042940  0.81231381  0.62247476     1.04900
O188        O  0.15038399  0.85360811  0.64255430    -1.12300
O189        O  0.13367841  0.83534068  0.69079098    -0.74700
O190        O  0.13055827  0.80646199  0.66183653    -0.78200
O191        O  0.16480741  0.86727555  0.59217032    -0.78900
C192        C  0.13110065  0.81308108  0.68421849     0.96400
O193        O  0.09982751  0.83811633  0.62972338    -0.76900
O194        O  0.17026165  0.87314857  0.68922806    -0.82000
C195        C  0.15107478  0.91505790  0.64310882     0.99000
C196        C  0.19256145  0.87333265  0.68225214     1.04900
O197        O  0.16722987  0.90409110  0.63027435    -0.77700
C198        C  0.08920172  0.85375323  0.64347222     1.03200
Fe199      Fe  0.36848598  0.82413548  0.86413813     1.65800
Fe200      Fe  0.36896790  0.86802837  0.81864121     1.73200
Fe201      Fe  0.32402184  0.86906406  0.86306005     1.54400
O202        O  0.30577871  0.83600102  0.86645456    -0.81400
O203        O  0.36692962  0.90385579  0.83174025    -0.79700
O204        O  0.33466663  0.80696577  0.86840363    -0.83900
O205        O  0.36696057  0.83878557  0.89926214    -0.78800
O206        O  0.30670289  0.87301051  0.82945199    -0.80600
O207        O  0.40433447  0.86623168  0.83246359    -0.83300
C208        C  0.35329563  0.85448498  0.90986421     0.97500
C209        C  0.31229329  0.81370551  0.86844434     1.04900
O210        O  0.35390490  0.85379243  0.84868410    -1.12300
O211        O  0.37264400  0.83414313  0.80165089    -0.74700
O212        O  0.37161347  0.80559784  0.83110496    -0.78200
O213        O  0.33693918  0.86674622  0.89863325    -0.78900
C214        C  0.37305276  0.81186184  0.80866166     0.96400
O215        O  0.40430857  0.83717441  0.86145699    -0.76900
O216        O  0.33572223  0.87126891  0.80055656    -0.82000
C217        C  0.35445545  0.91495725  0.84812225     0.99000
C218        C  0.31339511  0.87305145  0.80708696     1.04900
O219        O  0.33849748  0.90419546  0.86139401    -0.77700
C220        C  0.41532728  0.85311020  0.84832535     1.03200
Fe221      Fe  0.13415882  0.67887403  0.86363570     1.65800
Fe222      Fe  0.13383716  0.63519540  0.81785448     1.73200
Fe223      Fe  0.17907759  0.63460428  0.86190337     1.54400
O224        O  0.19688919  0.66798871  0.86420997    -0.81400
O225        O  0.13710233  0.59939998  0.83055173    -0.79700
O226        O  0.16766280  0.69644435  0.86848508    -0.83900
O227        O  0.13560793  0.66386019  0.89861852    -0.78800
O228        O  0.19582811  0.62992702  0.82803486    -0.80600
O229        O  0.09882171  0.63587034  0.83224330    -0.83300
C230        C  0.15007584  0.64892568  0.90924187     0.97500
C231        C  0.19010645  0.69009561  0.86734660     1.04900
O232        O  0.14895013  0.64950252  0.84785434    -1.12300
O233        O  0.12883683  0.66906687  0.80119635    -0.74700
O234        O  0.13120836  0.69757751  0.83065836    -0.78200
O235        O  0.16693730  0.63740903  0.89789528    -0.78900
C236        C  0.12897246  0.69134835  0.80824523     0.96400
O237        O  0.09860869  0.66553851  0.86064351    -0.76900
O238        O  0.16679659  0.63295602  0.79928772    -0.82000
C239        C  0.14933963  0.58845132  0.84719419     0.99000
C240        C  0.18905957  0.63039758  0.80570308     1.04900
O241        O  0.16473898  0.59940069  0.86096199    -0.77700
C242        C  0.08780030  0.64917252  0.84792107     1.03200
Fe243      Fe  0.36868705  0.67902054  0.62938294     1.65800
Fe244      Fe  0.36931361  0.63377490  0.67360148     1.73200
Fe245      Fe  0.32447165  0.63390590  0.62901017     1.54400
O246        O  0.30671733  0.66714837  0.62487521    -0.81400
O247        O  0.36820968  0.59856948  0.65917233    -0.79700
O248        O  0.33517103  0.69664454  0.62686380    -0.83900
O249        O  0.36593954  0.66608789  0.59365769    -0.78800
O250        O  0.30671083  0.63071863  0.66238750    -0.80600
O251        O  0.40471348  0.63714516  0.66008658    -0.83300
C252        C  0.35383657  0.64935489  0.58266911     0.97500
C253        C  0.31298412  0.68962901  0.62498810     1.04900
O254        O  0.35423294  0.64883513  0.64395470    -1.12300
O255        O  0.37218237  0.66696280  0.69202614    -0.74700
O256        O  0.37305741  0.69600404  0.66306574    -0.78200
O257        O  0.33852141  0.63547058  0.59362122    -0.78900
C258        C  0.37366657  0.68930992  0.68542227     0.96400
O259        O  0.40418024  0.66550267  0.63039044    -0.76900
O260        O  0.33588529  0.62868376  0.69117161    -0.82000
C261        C  0.35445429  0.58763712  0.64375890     0.99000
C262        C  0.31345573  0.62852250  0.68461534     1.04900
O263        O  0.33784302  0.59854424  0.63154794    -0.77700
C264        C  0.41539989  0.64998751  0.64372715     1.03200
Fe265      Fe  0.13655579  0.13584451  0.67390449     1.65800
Fe266      Fe  0.13598804  0.17920125  0.62791648     1.73200
Fe267      Fe  0.18087008  0.13477205  0.62880659     1.54400
O268        O  0.19852224  0.13159056  0.66214047    -0.81400
O269        O  0.13831540  0.16494622  0.59266763    -0.79700
O270        O  0.16996022  0.13323076  0.69152833    -0.83900
O271        O  0.13899348  0.09993494  0.66151514    -0.78800
O272        O  0.19855565  0.16819871  0.62493289    -0.80600
O273        O  0.10063675  0.16491562  0.63014236    -0.83300
C274        C  0.15158512  0.08865256  0.64537970     0.97500
C275        C  0.19215176  0.13161790  0.68456940     1.04900
O276        O  0.15105606  0.14985534  0.64346236    -1.12300
O277        O  0.13199707  0.19784921  0.66083233    -0.74700
O278        O  0.13255432  0.16970797  0.69059436    -0.78200
O279        O  0.16705340  0.09938618  0.63149550    -0.78900
C280        C  0.13123986  0.19183670  0.68336105     0.96400
O281        O  0.10119325  0.13699115  0.66027764    -0.76900
O282        O  0.16940986  0.19705968  0.62429323    -0.82000
C283        C  0.15152485  0.14893422  0.58196870     0.99000
C284        C  0.19182460  0.19051175  0.62377415     1.04900
O285        O  0.16754670  0.13621848  0.59320123    -0.77700
C286        C  0.09001462  0.14911649  0.64376547     1.03200
Fe287      Fe  0.37040888  0.36827811  0.67349497     1.65800
Fe288      Fe  0.37163489  0.32433292  0.62805565     1.73200
Fe289      Fe  0.32592142  0.36795866  0.62860189     1.54400
O290        O  0.30805956  0.37111229  0.66199215    -0.81400
O291        O  0.36947072  0.33842214  0.59282271    -0.79700
O292        O  0.33691357  0.37073890  0.69113898    -0.83900
O293        O  0.36743892  0.40377767  0.66048577    -0.78800
O294        O  0.30898405  0.33422845  0.62468553    -0.80600
O295        O  0.40674239  0.33902616  0.63039642    -0.83300
C296        C  0.35453316  0.41466166  0.64438339     0.97500
C297        C  0.31460465  0.37183064  0.68437806     1.04900
O298        O  0.35603143  0.35357263  0.64333165    -1.12300
O299        O  0.37546151  0.30617266  0.66117411    -0.74700
O300        O  0.37504268  0.33471756  0.69063390    -0.78200
O301        O  0.33891371  0.40362363  0.63095285    -0.78900
C302        C  0.37631416  0.31249228  0.68362687     0.96400
O303        O  0.40578822  0.36768476  0.65980327    -0.76900
O304        O  0.33858034  0.30584977  0.62402750    -0.82000
C305        C  0.35595489  0.35411239  0.58205859     0.99000
C306        C  0.31607909  0.31205317  0.62329956     1.04900
O307        O  0.33954793  0.36647522  0.59314344    -0.77700
C308        C  0.41711928  0.35536379  0.64353388     1.03200
Fe309      Fe  0.32569701  0.13424192  0.86297126     1.65800
Fe310      Fe  0.36992102  0.13502308  0.81780233     1.73200
Fe311      Fe  0.37032030  0.17909335  0.86310327     1.54400
O312        O  0.33694503  0.19655177  0.86771644    -0.81400
O313        O  0.40534403  0.13656567  0.83133578    -0.79700
O314        O  0.30780039  0.16766171  0.86736693    -0.83900
O315        O  0.33998447  0.13561601  0.89807439    -0.78800
O316        O  0.37315219  0.19745621  0.82997928    -0.80600
O317        O  0.36790072  0.09932532  0.83067207    -0.83300
C318        C  0.35650379  0.14812516  0.90887934     0.97500
C319        C  0.31454802  0.19001258  0.86865172     1.04900
O320        O  0.35535035  0.14940049  0.84800257    -1.12300
O321        O  0.33643139  0.13192625  0.80041455    -0.74700
O322        O  0.30774578  0.13113719  0.82977267    -0.78200
O323        O  0.36919989  0.16453239  0.89813864    -0.78900
C324        C  0.31419078  0.13077729  0.80735177     0.96400
O325        O  0.33945032  0.09878952  0.86025754    -0.76900
O326        O  0.37351071  0.16870648  0.80071060    -0.82000
C327        C  0.41642789  0.14947278  0.84734589     0.99000
C328        C  0.37409361  0.19100450  0.80756180     1.04900
O329        O  0.40572808  0.16569755  0.86026961    -0.77700
C330        C  0.35530295  0.08809125  0.84682535     1.03200
Fe331      Fe  0.13538900  0.36933658  0.81809309     1.65800
Fe332      Fe  0.13588368  0.32465940  0.86278282     1.73200
Fe333      Fe  0.18101726  0.36897582  0.86186312     1.54400
O334        O  0.19782742  0.37354997  0.82811603    -0.81400
O335        O  0.13815544  0.33854090  0.89809462    -0.79700
O336        O  0.16835989  0.37278481  0.79964968    -0.83900
O337        O  0.13800757  0.40467958  0.83190533    -0.78800
O338        O  0.19884417  0.33543904  0.86425374    -0.80600
O339        O  0.10036294  0.33824351  0.86102391    -0.83300
C340        C  0.15091324  0.41540961  0.84818658     0.97500
C341        C  0.19078237  0.37423987  0.80589196     1.04900
O342        O  0.15070461  0.35437924  0.84764116    -1.12300
O343        O  0.13201029  0.30694588  0.82941507    -0.74700
O344        O  0.13124566  0.33599139  0.80044578    -0.78200
O345        O  0.16697293  0.40434136  0.86104945    -0.78900
C346        C  0.13060472  0.31363774  0.80709256     0.96400
O347        O  0.10016191  0.36750895  0.83227219    -0.76900
O348        O  0.16935840  0.30691970  0.86633210    -0.82000
C349        C  0.15211837  0.35391719  0.90880863     0.99000
C350        C  0.19187628  0.31321004  0.86616875     1.04900
O351        O  0.16856364  0.36617090  0.89761768    -0.77700
C352        C  0.08932022  0.35437247  0.84825313     1.03200
Fe353      Fe  0.82545075  0.87120435  0.36378161     1.65800
Fe354      Fe  0.87003543  0.82631217  0.36423425     1.73200
Fe355      Fe  0.87058679  0.87095988  0.31960983     1.54400
O356        O  0.83731568  0.87438247  0.30159689    -0.81400
O357        O  0.90565995  0.83975012  0.36243762    -0.79700
O358        O  0.80794777  0.87434116  0.33025962    -0.83900
O359        O  0.83908144  0.90666466  0.36167913    -0.78800
O360        O  0.87439392  0.83753055  0.30206935    -0.80600
O361        O  0.86784621  0.84033653  0.39943464    -0.83300
C362        C  0.85552449  0.91746471  0.34908618     0.97500
C363        C  0.81486326  0.87510868  0.30798468     1.04900
O364        O  0.85540667  0.85619518  0.34927191    -1.12300
O365        O  0.83654183  0.80877826  0.36784495    -0.74700
O366        O  0.80768873  0.83787606  0.36775535    -0.78200
O367        O  0.86863477  0.90642490  0.33321876    -0.78900
C368        C  0.81424042  0.81551925  0.36883152     0.96400
O369        O  0.83906589  0.86962477  0.39910100    -0.76900
O370        O  0.87363359  0.80837802  0.33090023    -0.82000
C371        C  0.91664665  0.85596482  0.34968944     0.99000
C372        C  0.87494764  0.81513602  0.30860073     1.04900
O373        O  0.90578954  0.86901252  0.33367257    -0.77700
C374        C  0.85502877  0.85666970  0.41011549     1.03200
Fe375      Fe  0.82598990  0.63681996  0.12812995     1.65800
Fe376      Fe  0.87026507  0.68215961  0.12923291     1.73200
Fe377      Fe  0.86978335  0.63720137  0.17361236     1.54400
O378        O  0.83608400  0.63348459  0.19070877    -0.81400
O379        O  0.90570346  0.66875217  0.13186606    -0.79700
O380        O  0.80770552  0.63208143  0.16115955    -0.83900
O381        O  0.84032779  0.60160317  0.12960774    -0.78800
O382        O  0.87303631  0.67044016  0.19150562    -0.80600
O383        O  0.86909585  0.66877396  0.09360224    -0.83300
C384        C  0.85603769  0.59087346  0.14314561     0.97500
C385        C  0.81391526  0.63164251  0.18365102     1.04900
O386        O  0.85539907  0.65202031  0.14358533    -1.12300
O387        O  0.83672254  0.69944067  0.12491155    -0.74700
O388        O  0.80800288  0.67003142  0.12492958    -0.78200
O389        O  0.86811345  0.60189568  0.15982985    -0.78900
C390        C  0.81445167  0.69245819  0.12380224     0.96400
O391        O  0.83990383  0.63985886  0.09291782    -0.76900
O392        O  0.87314790  0.69979318  0.16289519    -0.82000
C393        C  0.91651110  0.65253631  0.14472108     0.99000
C394        C  0.87387992  0.69286603  0.18518122     1.04900
O395        O  0.90543347  0.63932142  0.16048890    -0.77700
C396        C  0.85603336  0.65301190  0.08229699     1.03200
Fe397      Fe  0.68000353  0.87011357  0.13009878     1.65800
Fe398      Fe  0.63582760  0.82480862  0.12992496     1.73200
Fe399      Fe  0.63568989  0.86923954  0.17507120     1.54400
O400        O  0.66909143  0.87360644  0.19245046    -0.81400
O401        O  0.60039389  0.83831812  0.13191103    -0.79700
O402        O  0.69813177  0.87302471  0.16346903    -0.83900
O403        O  0.66627111  0.90540369  0.13312152    -0.78800
O404        O  0.63299028  0.83571115  0.19257054    -0.80600
O405        O  0.63787420  0.83856581  0.09442667    -0.83300
C406        C  0.64983855  0.91602626  0.14585698     0.97500
C407        C  0.69145267  0.87429180  0.18582153     1.04900
O408        O  0.65045512  0.85474922  0.14498424    -1.12300
O409        O  0.66936715  0.80738941  0.12622308    -0.74700
O410        O  0.69782077  0.83698059  0.12524207    -0.78200
O411        O  0.63670017  0.90478817  0.16157845    -0.78900
C412        C  0.69154431  0.81450453  0.12444996     0.96400
O413        O  0.66569062  0.86882903  0.09482718    -0.76900
O414        O  0.63204770  0.80694404  0.16330408    -0.82000
C415        C  0.58946048  0.85396608  0.14535547     0.99000
C416        C  0.63161476  0.81344136  0.18573901     1.04900
O417        O  0.60031417  0.86651043  0.16179465    -0.77700
C418        C  0.65012985  0.85535375  0.08369532     1.03200
Fe419      Fe  0.68173389  0.63574609  0.36382692     1.65800
Fe420      Fe  0.63690431  0.68027077  0.36488656     1.73200
Fe421      Fe  0.63676551  0.63616239  0.31950899     1.54400
O422        O  0.66998819  0.63326347  0.30122084    -0.81400
O423        O  0.60143414  0.66650046  0.36281744    -0.79700
O424        O  0.69904392  0.63238356  0.33015071    -0.83900
O425        O  0.66801173  0.60028559  0.36186934    -0.78800
O426        O  0.63230444  0.66985070  0.30253490    -0.80600
O427        O  0.63893413  0.66599948  0.39991076    -0.83300
C428        C  0.65209721  0.58942199  0.34864729     0.97500
C429        C  0.69234793  0.63196906  0.30778351     1.04900
O430        O  0.65175321  0.65069437  0.34945011    -1.12300
O431        O  0.67039073  0.69801877  0.36873286    -0.74700
O432        O  0.69942623  0.66910370  0.36744987    -0.78200
O433        O  0.63935436  0.60048155  0.33249908    -0.78900
C434        C  0.69277401  0.69139565  0.36908972     0.96400
O435        O  0.66848556  0.63755059  0.39941611    -0.76900
O436        O  0.63309751  0.69849738  0.33191602    -0.82000
C437        C  0.59063253  0.65025840  0.34991973     0.99000
C438        C  0.63149393  0.69210955  0.30953781     1.04900
O439        O  0.60161495  0.63744268  0.33377673    -0.77700
C440        C  0.65218263  0.65004130  0.41053646     1.03200
Fe441      Fe  0.63605698  0.13508371  0.17415118     1.65800
Fe442      Fe  0.63711016  0.18010869  0.12981315     1.73200
Fe443      Fe  0.68190011  0.13550195  0.13056102     1.54400
O444        O  0.69872969  0.13181054  0.16441768    -0.81400
O445        O  0.63970209  0.16633032  0.09440741    -0.79700
O446        O  0.66895256  0.13093619  0.19260936    -0.83900
O447        O  0.63798157  0.09982115  0.15998414    -0.78800
O448        O  0.69975992  0.16897848  0.12731642    -0.80600
O449        O  0.60137694  0.16678343  0.13128773    -0.83300
C450        C  0.65150557  0.08898838  0.14431365     0.97500
C451        C  0.69147633  0.13037314  0.18656284     1.04900
O452        O  0.65163221  0.15017282  0.14476621    -1.12300
O453        O  0.63307923  0.19767401  0.16333091    -0.74700
O454        O  0.63252940  0.16839078  0.19208133    -0.78200
O455        O  0.66816761  0.09998380  0.13211440    -0.78900
C456        C  0.63180824  0.19082020  0.18562174     0.96400
O457        O  0.60087549  0.13752471  0.16002464    -0.76900
O458        O  0.67067104  0.19782212  0.12656140    -0.82000
C459        C  0.65308586  0.15048974  0.08362537     0.99000
C460        C  0.69307058  0.19129884  0.12595283     1.04900
O461        O  0.66909714  0.13765997  0.09478865    -0.77700
C462        C  0.59014143  0.15077997  0.14410281     1.03200
Fe463      Fe  0.68095436  0.36985616  0.36422052     1.65800
Fe464      Fe  0.63616944  0.37043999  0.31962878     1.73200
Fe465      Fe  0.63614138  0.32509002  0.36356479     1.54400
O466        O  0.66959701  0.30755858  0.36697275    -0.81400
O467        O  0.60072895  0.36797451  0.33309021    -0.79700
O468        O  0.69869792  0.33652831  0.36695343    -0.83900
O469        O  0.66738788  0.36697804  0.39959012    -0.78800
O470        O  0.63283219  0.30782115  0.32984713    -0.80600
O471        O  0.63810844  0.40566950  0.33413111    -0.83300
C472        C  0.65104236  0.35418217  0.41032786     0.97500
C473        C  0.69197472  0.31420102  0.36762087     1.04900
O474        O  0.65102416  0.35518833  0.34920345    -1.12300
O475        O  0.66951937  0.37457948  0.30205053    -0.74700
O476        O  0.69866617  0.37433853  0.33087503    -0.78200
O477        O  0.63783678  0.33840975  0.39919684    -0.78900
C478        C  0.69189224  0.37559481  0.30858489     0.96400
O479        O  0.66719215  0.40523007  0.36312551    -0.76900
O480        O  0.63268337  0.33722955  0.30125599    -0.82000
C481        C  0.58972567  0.35472261  0.34886284     0.99000
C482        C  0.63187294  0.31474973  0.30757882     1.04900
O483        O  0.60061588  0.33851437  0.36164853    -0.77700
C484        C  0.65107831  0.41635020  0.35042118     1.03200
Fe485      Fe  0.82648273  0.13757262  0.36402414     1.65800
Fe486      Fe  0.87108830  0.13613287  0.31926322     1.73200
Fe487      Fe  0.87183034  0.18176901  0.36301202     1.54400
O488        O  0.83877764  0.20013454  0.36530201    -0.81400
O489        O  0.90668719  0.13834109  0.33284920    -0.79700
O490        O  0.80953294  0.17132244  0.36692837    -0.83900
O491        O  0.84028449  0.13998763  0.39942099    -0.78800
O492        O  0.87661195  0.19850036  0.32913100    -0.80600
O493        O  0.86879477  0.10101316  0.33384066    -0.83300
C494        C  0.85606680  0.15347081  0.41018826     0.97500
C495        C  0.81639579  0.19363224  0.36664966     1.04900
O496        O  0.85653737  0.15174437  0.34883690    -1.12300
O497        O  0.83748119  0.13230514  0.30182640    -0.74700
O498        O  0.80849313  0.13367793  0.33081560    -0.78200
O499        O  0.86890102  0.16945240  0.39893809    -0.78900
C500        C  0.81509139  0.13201106  0.30850491     0.96400
O501        O  0.83940212  0.10183325  0.36253095    -0.76900
O502        O  0.87480847  0.16909756  0.30060972    -0.82000
C503        C  0.91762827  0.15100349  0.34921943     0.99000
C504        C  0.87677644  0.19151880  0.30684632     1.04900
O505        O  0.90680478  0.16712482  0.36218759    -0.77700
C506        C  0.85545680  0.09048085  0.34990887     1.03200
Fe507      Fe  0.86994529  0.32729804  0.12974201     1.65800
Fe508      Fe  0.82538468  0.37206949  0.13000306     1.73200
Fe509      Fe  0.87034839  0.37197091  0.17447486     1.54400
O510        O  0.87410737  0.33836943  0.19201706    -0.81400
O511        O  0.83958667  0.40724106  0.13147973    -0.79700
O512        O  0.87270122  0.30928250  0.16306374    -0.83900
O513        O  0.90573948  0.34042943  0.13236468    -0.78800
O514        O  0.83714634  0.37554395  0.19239166    -0.80600
O515        O  0.83876737  0.36961723  0.09438165    -0.83300
C516        C  0.91666155  0.35678326  0.14504119     0.97500
C517        C  0.87429251  0.31594613  0.18538848     1.04900
O518        O  0.85526770  0.35715883  0.14469428    -1.12300
O519        O  0.80726295  0.33883041  0.12685989    -0.74700
O520        O  0.83627605  0.30993686  0.12524558    -0.78200
O521        O  0.90563682  0.37012285  0.16069407    -0.78900
C522        C  0.81387741  0.31653874  0.12499538     0.96400
O523        O  0.86869763  0.34153905  0.09458574    -0.76900
O524        O  0.80794823  0.37625934  0.16360997    -0.82000
C525        C  0.85564780  0.41825115  0.14439607     0.99000
C526        C  0.81478050  0.37691885  0.18593114     1.04900
O527        O  0.86832660  0.40750086  0.16080787    -0.77700
C528        C  0.85536969  0.35721701  0.08357723     1.03200
Fe529      Fe  0.13690079  0.18112540  0.36252931     1.65800
Fe530      Fe  0.13727113  0.13645823  0.31781399     1.73200
Fe531      Fe  0.18168422  0.13650982  0.36278850     1.54400
O532        O  0.19915596  0.16986437  0.36718218    -0.81400
O533        O  0.13918460  0.10096165  0.33143119    -0.79700
O534        O  0.17033783  0.19895968  0.36603121    -0.83900
O535        O  0.13886700  0.16732956  0.39798670    -0.78800
O536        O  0.19975868  0.13361998  0.32950235    -0.80600
O537        O  0.10173492  0.13848437  0.33121824    -0.83300
C538        C  0.15135488  0.15086941  0.40889298     0.97500
C539        C  0.19263013  0.19223314  0.36754602     1.04900
O540        O  0.15188032  0.15129662  0.34777237    -1.12300
O541        O  0.13381710  0.16988943  0.30009510    -0.74700
O542        O  0.13318307  0.19891196  0.32908123    -0.78200
O543        O  0.16738816  0.13781861  0.39802234    -0.78900
C544        C  0.13255332  0.19225104  0.30670564     0.96400
O545        O  0.10145683  0.16728006  0.36051992    -0.76900
O546        O  0.17082691  0.13290058  0.30041251    -0.82000
C547        C  0.15248923  0.09002223  0.34719176     0.99000
C548        C  0.19317065  0.13243123  0.30713416     1.04900
O549        O  0.16856683  0.10100670  0.36008288    -0.77700
C550        C  0.09064663  0.15128431  0.34732416     1.03200
Fe551      Fe  0.18129176  0.37050700  0.12725529     1.65800
Fe552      Fe  0.13608875  0.32626200  0.12867603     1.73200
Fe553      Fe  0.13707865  0.37169387  0.17252326     1.54400
O554        O  0.17090546  0.37659611  0.18925303    -0.81400
O555        O  0.10092127  0.34040355  0.13031997    -0.79700
O556        O  0.19968422  0.37394330  0.16015760    -0.83900
O557        O  0.16815731  0.40627481  0.12936858    -0.78800
O558        O  0.13465802  0.33874589  0.19128149    -0.80600
O559        O  0.13826321  0.33909628  0.09289350    -0.83300
C560        C  0.15155985  0.41730325  0.14161901     0.97500
C561        C  0.19323603  0.37632377  0.18243446     1.04900
O562        O  0.15143077  0.35622285  0.14274762    -1.12300
O563        O  0.16911740  0.30803066  0.12542180    -0.74700
O564        O  0.19843174  0.33669536  0.12335545    -0.78200
O565        O  0.13816108  0.40654940  0.15747061    -0.78900
C566        C  0.19148690  0.31437184  0.12343051     0.96400
O567        O  0.16693103  0.36855603  0.09226948    -0.76900
O568        O  0.13235334  0.30944434  0.16262003    -0.82000
C569        C  0.09000761  0.35598145  0.14384613     0.99000
C570        C  0.13276553  0.31634546  0.18494225     1.04900
O571        O  0.10108285  0.36861122  0.16012519    -0.77700
C572        C  0.15095530  0.35522694  0.08167234     1.03200
Fe573      Fe  0.36995781  0.13645621  0.17211191     1.65800
Fe574      Fe  0.32565831  0.13581850  0.12688544     1.73200
Fe575      Fe  0.36998076  0.18108498  0.12751091     1.54400
O576        O  0.37279847  0.19897651  0.16104624    -0.81400
O577        O  0.33971528  0.13817692  0.09163632    -0.79700
O578        O  0.37317928  0.16989318  0.18994499    -0.83900
O579        O  0.40565306  0.13867710  0.15874273    -0.78800
O580        O  0.33641616  0.19819528  0.12307506    -0.80600
O581        O  0.33987858  0.10051921  0.12882567    -0.83300
C582        C  0.41661861  0.15201450  0.14296550     0.97500
C583        C  0.37381175  0.19228783  0.18341145     1.04900
O584        O  0.35522646  0.15106619  0.14212124    -1.12300
O585        O  0.30763229  0.13165904  0.16010034    -0.74700
O586        O  0.33634039  0.13253367  0.18940480    -0.78200
O587        O  0.40558270  0.16808499  0.13014324    -0.78900
C588        C  0.31408019  0.13098890  0.18252873     0.96400
O589        O  0.36827683  0.10107737  0.15848248    -0.76900
O590        O  0.30745857  0.16907714  0.12320703    -0.82000
C591        C  0.35612805  0.15099409  0.08102060     0.99000
C592        C  0.31407458  0.19146154  0.12199886     1.04900
O593        O  0.36889837  0.16712351  0.09213789    -0.77700
C594        C  0.35582046  0.08988964  0.14218540     1.03200
Fe595      Fe  0.37035231  0.37009493  0.31724089     1.65800
Fe596      Fe  0.32579899  0.37156658  0.36204790     1.73200
Fe597      Fe  0.37048067  0.32686879  0.36337837     1.54400
O598        O  0.37393633  0.30788973  0.33053055    -0.81400
O599        O  0.33895954  0.37008869  0.39769157    -0.79700
O600        O  0.37422318  0.33604733  0.30074156    -0.83900
O601        O  0.40571921  0.36887244  0.33100573    -0.78800
O602        O  0.33703695  0.30923991  0.36774697    -0.80600
O603        O  0.33978768  0.40692056  0.35934353    -0.83300
C604        C  0.41673960  0.35646954  0.34741996     0.97500
C605        C  0.37499457  0.31387069  0.30798518     1.04900
O606        O  0.35560691  0.35624560  0.34763046    -1.12300
O607        O  0.30822405  0.37481376  0.32858574    -0.74700
O608        O  0.33698906  0.37292099  0.29941730    -0.78200
O609        O  0.40593045  0.34064572  0.36081774    -0.78900
C610        C  0.31474356  0.37479262  0.30618278     0.96400
O611        O  0.36807540  0.40606955  0.32954915    -0.76900
O612        O  0.30805725  0.33821662  0.36605425    -0.82000
C613        C  0.35510226  0.35756070  0.40896155     0.99000
C614        C  0.31467272  0.31591383  0.36796531     1.04900
O615        O  0.36853495  0.34167533  0.39835648    -0.77700
C616        C  0.35547015  0.41750189  0.34557470     1.03200
Fe617      Fe  0.13556874  0.68028764  0.12810350     1.65800
Fe618      Fe  0.18099413  0.63643264  0.12890970     1.73200
Fe619      Fe  0.13640594  0.63662003  0.17371917     1.54400
O620        O  0.13172592  0.67045826  0.19047210    -0.81400
O621        O  0.16701214  0.60105081  0.13031899    -0.79700
O622        O  0.13311128  0.69898417  0.16097004    -0.83900
O623        O  0.10015145  0.66689087  0.13189100    -0.78800
O624        O  0.16981904  0.63435606  0.19156059    -0.80600
O625        O  0.16773118  0.63876141  0.09320940    -0.83300
C626        C  0.08958529  0.65052969  0.14479394     0.97500
C627        C  0.13131937  0.69271146  0.18337573     1.04900
O628        O  0.15094036  0.65107323  0.14354341    -1.12300
O629        O  0.19848902  0.66998875  0.12592616    -0.74700
O630        O  0.16881047  0.69806548  0.12256842    -0.78200
O631        O  0.10095278  0.63724512  0.16021667    -0.78900
C632        C  0.19135479  0.69201892  0.12314319     0.96400
O633        O  0.13628128  0.66510186  0.09330343    -0.76900
O634        O  0.19867933  0.63237284  0.16251965    -0.82000
C635        C  0.15142065  0.59010183  0.14387435     0.99000
C636        C  0.19211975  0.63252064  0.18494906     1.04900
O637        O  0.13928836  0.60096643  0.16065591    -0.77700
C638        C  0.15040112  0.65006693  0.08236382     1.03200
Fe639      Fe  0.32713208  0.63735412  0.36299163     1.65800
Fe640      Fe  0.37184219  0.63778639  0.31830112     1.73200
Fe641      Fe  0.37144541  0.68245857  0.36321642     1.54400
O642        O  0.33798055  0.70022725  0.36604979    -0.81400
O643        O  0.40725642  0.64047280  0.33199282    -0.79700
O644        O  0.30945973  0.67074558  0.36777003    -0.83900
O645        O  0.34134525  0.63839492  0.39836188    -0.78800
O646        O  0.37607519  0.70004272  0.32986387    -0.80600
O647        O  0.37043651  0.60220399  0.33176562    -0.83300
C648        C  0.35667660  0.65212051  0.40949188     0.97500
C649        C  0.31576968  0.69325619  0.36796423     1.04900
O650        O  0.35685895  0.65248731  0.34820232    -1.12300
O651        O  0.33838010  0.63346389  0.30066404    -0.74700
O652        O  0.30917886  0.63456787  0.32950750    -0.78200
O653        O  0.36869829  0.66905376  0.39873907    -0.78900
C654        C  0.31594146  0.63296990  0.30719081     0.96400
O655        O  0.34056514  0.60188601  0.35991578    -0.76900
O656        O  0.37501751  0.67124289  0.30065493    -0.82000
C657        C  0.41790237  0.65297841  0.34864437     0.99000
C658        C  0.37673320  0.69350191  0.30746371     1.04900
O659        O  0.40675664  0.66858750  0.36197679    -0.77700
C660        C  0.35691697  0.59104861  0.34721671     1.03200
Fe661      Fe  0.13515581  0.87027266  0.31804812     1.65800
Fe662      Fe  0.13663065  0.82523888  0.36237091     1.73200
Fe663      Fe  0.18007864  0.87118599  0.36247300     1.54400
O664        O  0.19782253  0.87415921  0.32904342    -0.81400
O665        O  0.13948925  0.83830452  0.39784739    -0.79700
O666        O  0.16849913  0.87527742  0.30032490    -0.83900
O667        O  0.13591633  0.90564000  0.33200531    -0.78800
O668        O  0.19835852  0.83817866  0.36725233    -0.80600
O669        O  0.10099532  0.83839744  0.36162528    -0.83300
C670        C  0.14949120  0.91695379  0.34728957     0.97500
C671        C  0.19096079  0.87571585  0.30678548     1.04900
O672        O  0.15057123  0.85560723  0.34766296    -1.12300
O673        O  0.13208975  0.80794464  0.32889726    -0.74700
O674        O  0.13255315  0.83699120  0.29996834    -0.78200
O675        O  0.16626093  0.90641171  0.35958545    -0.78900
C676        C  0.13122931  0.81466087  0.30657276     0.96400
O677        O  0.09987393  0.86676829  0.33195272    -0.76900
O678        O  0.17045009  0.80816563  0.36491433    -0.82000
C679        C  0.15107613  0.85545118  0.40868301     0.99000
C680        C  0.19248526  0.81556659  0.36722255     1.04900
O681        O  0.16584922  0.86985302  0.39769226    -0.77700
C682        C  0.08951439  0.85394894  0.34854482     1.03200
Fe683      Fe  0.37025799  0.82607020  0.12832745     1.65800
Fe684      Fe  0.32532839  0.87037075  0.12920762     1.73200
Fe685      Fe  0.37084306  0.87069797  0.17310427     1.54400
O686        O  0.37518264  0.83721638  0.19052074    -0.81400
O687        O  0.33896210  0.90584530  0.13087624    -0.79700
O688        O  0.37378366  0.80820346  0.16149890    -0.83900
O689        O  0.40570604  0.83941495  0.13038391    -0.78800
O690        O  0.33770556  0.87379878  0.19151675    -0.80600
O691        O  0.33840888  0.86839153  0.09356963    -0.83300
C692        C  0.41678844  0.85571554  0.14290007     0.97500
C693        C  0.37556950  0.81485743  0.18379346     1.04900
O694        O  0.35553894  0.85577608  0.14349413    -1.12300
O695        O  0.30761120  0.83691543  0.12586854    -0.74700
O696        O  0.33690361  0.80832996  0.12450757    -0.78200
O697        O  0.40604189  0.86911315  0.15873036    -0.78900
C698        C  0.31447009  0.81468849  0.12428195     0.96400
O699        O  0.36836869  0.84033533  0.09327177    -0.76900
O700        O  0.30825685  0.87379692  0.16296552    -0.82000
C701        C  0.35511770  0.91694749  0.14361220     0.99000
C702        C  0.31523045  0.87451767  0.18522697     1.04900
O703        O  0.36826108  0.90619104  0.15962802    -0.77700
C704        C  0.35490421  0.85607416  0.08254540     1.03200
C705        C  0.26065772  0.87667272  0.22193701     0.20600
C706        C  0.23525027  0.87691047  0.22661124    -0.39300
C707        C  0.22846909  0.87761206  0.25150536     0.19600
C708        C  0.24568837  0.87790358  0.27030169     0.22200
C709        C  0.27111645  0.87758190  0.26562988    -0.39800
C710        C  0.27790245  0.87701687  0.24071045     0.21000
N711        N  0.27177605  0.87595821  0.19986746    -0.33100
C712        C  0.29629221  0.87589227  0.20456914    -0.10600
C713        C  0.30085645  0.87650161  0.22986054    -0.29400
N714        N  0.23450434  0.87790651  0.29236350    -0.46000
C715        C  0.20999317  0.87755727  0.28758263    -0.05300
C716        C  0.20550227  0.87747861  0.26228815    -0.22700
H717        H  0.22176105  0.87648607  0.21194398     0.19100
H718        H  0.28460304  0.87765892  0.28030558     0.17900
H719        H  0.31854853  0.87638998  0.23904130     0.14200
H720        H  0.18784665  0.87673811  0.25306197     0.14100
H721        H  0.26319309  0.87540043  0.18265681     0.32200
H722        H  0.24303339  0.87762414  0.30960707     0.35000
C723        C  0.38014476  0.72992822  0.25289160     0.20600
C724        C  0.37898771  0.73468736  0.22755265    -0.39300
C725        C  0.37936380  0.75960146  0.22089311     0.19600
C726        C  0.38082624  0.77834632  0.23813746     0.22200
C727        C  0.38208051  0.77358514  0.26348330    -0.39800
C728        C  0.38164526  0.74865425  0.27015519     0.21000
N729        N  0.37882878  0.70788267  0.26397886    -0.33100
C730        C  0.37933425  0.71260687  0.28848243    -0.10600
C731        C  0.38125512  0.73782221  0.29306698    -0.29400
N732        N  0.37998722  0.80045404  0.22711561    -0.46000
C733        C  0.37796900  0.79570631  0.20269441    -0.05300
C734        C  0.37758008  0.77044240  0.19808569    -0.22700
H735        H  0.37740048  0.72009124  0.21405630     0.19100
H736        H  0.38280349  0.78821016  0.27702016     0.17900
H737        H  0.38152645  0.74701110  0.31076070     0.14200
H738        H  0.37573646  0.76127051  0.18047453     0.14100
H739        H  0.37700055  0.69074566  0.25541024     0.32200
H740        H  0.38037167  0.81767555  0.23569868     0.35000
C741        C  0.23005501  0.76179940  0.37218816     0.20600
C742        C  0.23513137  0.73648417  0.37293138    -0.39300
C743        C  0.26013449  0.73009390  0.37234378     0.19600
C744        C  0.27867482  0.74758701  0.37114562     0.22200
C745        C  0.27360034  0.77293254  0.37049372    -0.39800
C746        C  0.24857143  0.77932740  0.37106122     0.21000
N747        N  0.20779275  0.77251247  0.37143458    -0.33100
C748        C  0.21210857  0.79705029  0.36976009    -0.10600
C749        C  0.23734614  0.80204573  0.36963766    -0.29400
N750        N  0.30086302  0.73671938  0.36988169    -0.46000
C751        C  0.29641908  0.71212863  0.37021446    -0.05300
C752        C  0.27121739  0.70729117  0.37182690    -0.22700
H753        H  0.22065914  0.72275776  0.37344465     0.19100
H754        H  0.28804791  0.78663245  0.36918639     0.17900
H755        H  0.24624811  0.81982349  0.36800111     0.14200
H756        H  0.26220433  0.68949522  0.37201300     0.14100
H757        H  0.19070708  0.76362728  0.37153053     0.32200
H758        H  0.31794248  0.74549250  0.36839148     0.35000
C759        C  0.24561207  0.72916893  0.12076547     0.20600
C760        C  0.27094602  0.73412669  0.12168870    -0.39300
C761        C  0.27748184  0.75909687  0.12150145     0.19600
C762        C  0.26011139  0.77771242  0.12058645     0.22200
C763        C  0.23475326  0.77275129  0.11964603    -0.39800
C764        C  0.22821199  0.74775148  0.11972520     0.21000
N765        N  0.23468586  0.70699397  0.12150072    -0.33100
C766        C  0.21013943  0.71144265  0.12097469    -0.10600
C767        C  0.20536060  0.73666218  0.11974402    -0.29400
N768        N  0.27106666  0.79990185  0.12118787    -0.46000
C769        C  0.29557845  0.79535446  0.12243030    -0.05300
C770        C  0.30030012  0.77011412  0.12263344    -0.22700
H771        H  0.28454865  0.71961407  0.12272427     0.19100
H772        H  0.22113019  0.78727293  0.11915631     0.17900
H773        H  0.18758878  0.74566363  0.11961382     0.14200
H774        H  0.31800998  0.76107114  0.12385033     0.14100
H775        H  0.24339915  0.68990396  0.12283295     0.32200
H776        H  0.26239612  0.81706371  0.12100410     0.35000
C777        C  0.12573455  0.72985665  0.23727230     0.20600
C778        C  0.12434597  0.73476478  0.26257093    -0.39300
C779        C  0.12562430  0.75967084  0.26917812     0.19600
C780        C  0.12797540  0.77828157  0.25190768     0.22200
C781        C  0.12926215  0.77338052  0.22658043    -0.39800
C782        C  0.12808145  0.74844629  0.21997528     0.21000
N783        N  0.12613971  0.70766404  0.22639550    -0.33100
C784        C  0.12884088  0.71215252  0.20200443    -0.10600
C785        C  0.12998103  0.73737650  0.19724788    -0.29400
N786        N  0.12980109  0.80031671  0.26299790    -0.46000
C787        C  0.12874684  0.79564311  0.28749483    -0.05300
C788        C  0.12603455  0.77051870  0.29206747    -0.22700
H789        H  0.12295844  0.72023278  0.27613861     0.19100
H790        H  0.13154977  0.78785668  0.21307213     0.17900
H791        H  0.13254522  0.74635036  0.17963424     0.14200
H792        H  0.12508456  0.76138746  0.30975768     0.14100
H793        H  0.12517422  0.69053606  0.23508146     0.32200
H794        H  0.13219948  0.81738258  0.25445952     0.35000
C795        C  0.24664389  0.62860354  0.22187627     0.20600
C796        C  0.27201989  0.62771533  0.22678482    -0.39300
C797        C  0.27864802  0.62842631  0.25176159     0.19600
C798        C  0.26132316  0.62983335  0.27042026     0.22200
C799        C  0.23595625  0.63067757  0.26551801    -0.39800
C800        C  0.22933720  0.63003749  0.24054807     0.21000
N801        N  0.23564002  0.62897609  0.19969056    -0.33100
C802        C  0.21114017  0.63070236  0.20426209    -0.10600
C803        C  0.20651262  0.63135584  0.22955189    -0.29400
N804        N  0.27236139  0.63113449  0.29253838    -0.46000
C805        C  0.29691193  0.63068363  0.28795395    -0.05300
C806        C  0.30154423  0.62888695  0.26272035    -0.22700
H807        H  0.28561394  0.62695255  0.21222065     0.19100
H808        H  0.22239106  0.63213689  0.28005695     0.17900
H809        H  0.18884797  0.63300525  0.23864761     0.14200
H810        H  0.31927319  0.62855425  0.25360390     0.14100
H811        H  0.24428826  0.62846721  0.18250799     0.32200
H812        H  0.26372357  0.63278267  0.30965812     0.35000
C813        C  0.35187616  0.48198166  0.35850733     0.20600
C814        C  0.34214185  0.50343000  0.36908590    -0.39300
C815        C  0.35169604  0.52568996  0.36012725     0.19600
C816        C  0.36954646  0.52657832  0.34194124     0.22200
C817        C  0.37927373  0.50508739  0.33129942    -0.39800
C818        C  0.36975054  0.48277529  0.34033527     0.21000
N819        N  0.34508587  0.45864248  0.36316527    -0.33100
C820        C  0.35866962  0.44438197  0.34783139    -0.10600
C821        C  0.37434036  0.45878288  0.33333607    -0.29400
N822        N  0.37451261  0.55005039  0.33571641    -0.46000
C823        C  0.35960466  0.56416875  0.34996921    -0.05300
C824        C  0.34523530  0.54959626  0.36552447    -0.22700
H825        H  0.32779894  0.50283958  0.38292336     0.19100
H826        H  0.39286192  0.50570145  0.31672038     0.17900
H827        H  0.38680979  0.45258790  0.31906999     0.14200
H828        H  0.33115058  0.55564040  0.37826944     0.14100
H829        H  0.33154593  0.45283309  0.37554786     0.32200
H830        H  0.38656658  0.55603419  0.32195814     0.35000
C831        C  0.35327712  0.02558951  0.12839491     0.20600
C832        C  0.34365667  0.00402383  0.11785053    -0.39300
C833        C  0.35211566  0.98185333  0.12801297     0.19600
C834        C  0.36890019  0.98121187  0.14719088     0.22200
C835        C  0.37855267  0.00276616  0.15770784    -0.39800
C836        C  0.37008995  0.02492578  0.14754861     0.21000
N837        N  0.34682884  0.04891766  0.12326611    -0.33100
C838        C  0.35954127  0.06319128  0.13935764    -0.10600
C839        C  0.37440380  0.04888299  0.15464898    -0.29400
N840        N  0.37280899  0.95793437  0.15456798    -0.46000
C841        C  0.35828242  0.94364807  0.14010176    -0.05300
C842        C  0.34521332  0.95790480  0.12320544    -0.22700
H843        H  0.33000063  0.00448177  0.10334252     0.19100
H844        H  0.39114241  0.00232718  0.17315342     0.17900
H845        H  0.38581899  0.05509031  0.16977706     0.14200
H846        H  0.33171132  0.95167542  0.10991768     0.14100
H847        H  0.33379921  0.05467668  0.11035566     0.32200
H848        H  0.38394048  0.95221871  0.16916747     0.35000
C849        C  0.37577827  0.22848326  0.23851270     0.20600
C850        C  0.37459510  0.23319035  0.26393857    -0.39300
C851        C  0.37621125  0.25807046  0.27084371     0.19600
C852        C  0.37876785  0.27675961  0.25369833     0.22200
C853        C  0.37992503  0.27205330  0.22831733    -0.39800
C854        C  0.37830842  0.24722164  0.22142270     0.21000
N855        N  0.37418463  0.20652001  0.22717792    -0.33100
C856        C  0.37560118  0.21132726  0.20269591    -0.10600
C857        C  0.37821348  0.23652617  0.19840097    -0.29400
N858        N  0.37915082  0.29885135  0.26481458    -0.46000
C859        C  0.37680064  0.29430006  0.28924555    -0.05300
C860        C  0.37500528  0.26903183  0.29376032    -0.22700
H861        H  0.37233810  0.21859344  0.27732147     0.19100
H862        H  0.38164496  0.28668973  0.21490058     0.17900
H863        H  0.37955841  0.24578269  0.18080308     0.14200
H864        H  0.37253677  0.25997648  0.31134384     0.14100
H865        H  0.37190662  0.18935356  0.23556712     0.32200
H866        H  0.38047364  0.31602216  0.25624183     0.35000
C867        C  0.15330089  0.52619638  0.12803578     0.20600
C868        C  0.16279368  0.50487750  0.11688465    -0.39300
C869        C  0.15418218  0.48243456  0.12643237     0.19600
C870        C  0.13729621  0.48136893  0.14551536     0.22200
C871        C  0.12775336  0.50265621  0.15658965    -0.39800
C872        C  0.13644411  0.52505554  0.14713917     0.21000
N873        N  0.16007041  0.54963457  0.12375554    -0.33100
C874        C  0.14757707  0.56346700  0.14038818    -0.10600
C875        C  0.13246733  0.54879038  0.15511956    -0.29400
N876        N  0.13343210  0.45796629  0.15250102    -0.46000
C877        C  0.14812656  0.44396556  0.13797074    -0.05300
C878        C  0.16122435  0.45856539  0.12131651    -0.22700
H879        H  0.17658813  0.50569871  0.10251127     0.19100
H880        H  0.11518711  0.50182665  0.17204890     0.17900
H881        H  0.12108246  0.55458018  0.17042675     0.14200
H882        H  0.17495713  0.45263347  0.10814268     0.14100
H883        H  0.17317807  0.55571764  0.11104093     0.32200
H884        H  0.12235298  0.45199702  0.16706197     0.35000
C885        C  0.22996193  0.37966683  0.23680157     0.20600
C886        C  0.23469396  0.37984610  0.26217689    -0.39300
C887        C  0.25959948  0.37911831  0.26886110     0.19600
C888        C  0.27835023  0.37829797  0.25158845     0.22200
C889        C  0.27362001  0.37810500  0.22620162    -0.39800
C890        C  0.24870004  0.37880274  0.21951615     0.21000
N891        N  0.20785227  0.37946785  0.22576433    -0.33100
C892        C  0.21253217  0.37838118  0.20127851    -0.10600
C893        C  0.23780999  0.37799663  0.19663867    -0.29400
N894        N  0.30039653  0.37699555  0.26268249    -0.46000
C895        C  0.29562538  0.37690269  0.28718268    -0.05300
C896        C  0.27038979  0.37829606  0.29177050    -0.22700
H897        H  0.22005580  0.38017532  0.27571057     0.19100
H898        H  0.28823746  0.37711708  0.21267741     0.17900
H899        H  0.24694572  0.37671949  0.17896203     0.14200
H900        H  0.26118444  0.37824824  0.30945682     0.14100
H901        H  0.19064559  0.37951728  0.23438382     0.32200
H902        H  0.31758826  0.37583113  0.25411049     0.35000
C903        C  0.24544050  0.27699767  0.11905286     0.20600
C904        C  0.27073739  0.27192953  0.11809739    -0.39300
C905        C  0.27709929  0.24691929  0.11812655     0.19600
C906        C  0.25962147  0.22834113  0.11901656     0.22200
C907        C  0.23429272  0.23341184  0.11995788    -0.39800
C908        C  0.22792672  0.25845142  0.11995061     0.21000
N909        N  0.23471258  0.29925759  0.11988076    -0.33100
C910        C  0.21017571  0.29487989  0.12134455    -0.10600
C911        C  0.20521924  0.26963679  0.12140685    -0.29400
N912        N  0.27050024  0.20613069  0.11984657    -0.46000
C913        C  0.29507721  0.21064119  0.11962452    -0.05300
C914        C  0.29988254  0.23586406  0.11841338    -0.22700
H915        H  0.28447217  0.28639903  0.11775268     0.19100
H916        H  0.22058466  0.21895078  0.12100753     0.17900
H917        H  0.18743016  0.26069832  0.12271764     0.14200
H918        H  0.31766341  0.24491265  0.11849049     0.14100
H919        H  0.24356155  0.31636054  0.11978733     0.32200
H920        H  0.26175920  0.18902242  0.12117003     0.35000
C921        C  0.13837448  0.02588241  0.34328480     0.20600
C922        C  0.12741777  0.00459207  0.33353639    -0.39300
C923        C  0.13625827  0.98220988  0.34283299     0.19600
C924        C  0.15466992  0.98113642  0.36043151     0.22200
C925        C  0.16568087  0.00242343  0.37013748    -0.39800
C926        C  0.15677210  0.02480433  0.36089903     0.21000
N927        N  0.13396835  0.04930340  0.33671133    -0.33100
C928        C  0.14970475  0.06324527  0.35019615    -0.10600
C929        C  0.16418017  0.04861953  0.36556473    -0.29400
N930        N  0.16085902  0.95767480  0.36509956    -0.46000
C931        C  0.14640787  0.94369676  0.35025919    -0.05300
C932        C  0.13066995  0.95834501  0.33623097    -0.22700
H933        H  0.11343284  0.00538538  0.31936114     0.19100
H934        H  0.18045952  0.00160182  0.38348592     0.17900
H935        H  0.17872454  0.05455438  0.37785311     0.14200
H936        H  0.11780863  0.95240170  0.32219867     0.14100
H937        H  0.12153193  0.05536109  0.32336400     0.32200
H938        H  0.17480964  0.95161113  0.37686046     0.35000
C939        C  0.22946510  0.24670110  0.36952325     0.20600
C940        C  0.23436009  0.27203421  0.36869622    -0.39300
C941        C  0.25927736  0.27866267  0.36985216     0.19600
C942        C  0.27792992  0.26139446  0.37159319     0.22200
C943        C  0.27304134  0.23602125  0.37233134    -0.39800
C944        C  0.24808382  0.22939172  0.37126371     0.21000
N945        N  0.20733356  0.23570172  0.36838321    -0.33100
C946        C  0.21187790  0.21119894  0.36937902    -0.10600
C947        C  0.23708545  0.20652662  0.37118264    -0.29400
N948        N  0.30008280  0.27245918  0.37173355    -0.46000
C949        C  0.29544718  0.29693069  0.37001346    -0.05300
C950        C  0.27021012  0.30150563  0.36889521    -0.22700
H951        H  0.21984646  0.28557893  0.36709534     0.19100
H952        H  0.28758308  0.22245626  0.37345340     0.17900
H953        H  0.24613653  0.18879693  0.37196394     0.14200
H954        H  0.26112590  0.31913257  0.36700717     0.14100
H955        H  0.19023277  0.24432428  0.36668129     0.32200
H956        H  0.31727672  0.26387287  0.37242892     0.35000
C957        C  0.27768690  0.12792906  0.23721257     0.20600
C958        C  0.27311842  0.12840794  0.26262775    -0.39300
C959        C  0.24824610  0.12892992  0.26949229     0.19600
C960        C  0.22937934  0.12897231  0.25234478     0.22200
C961        C  0.23394446  0.12847978  0.22691772    -0.39800
C962        C  0.25883274  0.12794980  0.22004892     0.21000
N963        N  0.29971695  0.12835061  0.22600207    -0.33100
C964        C  0.29488954  0.12875207  0.20151927    -0.10600
C965        C  0.26957701  0.12836870  0.19706251    -0.29400
N966        N  0.20737842  0.13001375  0.26358031    -0.46000
C967        C  0.21227869  0.13063542  0.28805055    -0.05300
C968        C  0.23757366  0.12999042  0.29247221    -0.22700
H969        H  0.28784942  0.12869023  0.27605141     0.19100
H970        H  0.21922265  0.12881762  0.21348621     0.17900
H971        H  0.26031133  0.12907717  0.17943090     0.14200
H972        H  0.24687865  0.13050544  0.31009196     0.14100
H973        H  0.31696540  0.12896887  0.23450680     0.32200
H974        H  0.19010905  0.13050811  0.25511078     0.35000
C975        C  0.12895177  0.24692663  0.27013109     0.20600
C976        C  0.12836992  0.27234345  0.26537927    -0.39300
C977        C  0.12934067  0.27909080  0.24044807     0.19600
C978        C  0.13071524  0.26182155  0.22173025     0.22200
C979        C  0.13130043  0.23644129  0.22647830    -0.39800
C980        C  0.13036269  0.22970428  0.25137580     0.21000
N981        N  0.12906759  0.23578709  0.29223157    -0.33100
C982        C  0.13062140  0.21130478  0.28750008    -0.10600
C983        C  0.13136656  0.20680287  0.26220809    -0.29400
N984        N  0.13183417  0.27289692  0.19965719    -0.46000
C985        C  0.13123418  0.29741960  0.20429249    -0.05300
C986        C  0.12969965  0.30202630  0.22955055    -0.22700
H987        H  0.12755085  0.28586149  0.28001429     0.19100
H988        H  0.13266238  0.22294078  0.21186804     0.17900
H989        H  0.13301813  0.18918756  0.25301530     0.14200
H990        H  0.12915797  0.31974090  0.23868740     0.14100
H991        H  0.12860155  0.24433995  0.30946802     0.32200
H992        H  0.13322468  0.26428847  0.18249860     0.35000
C993        C  0.02569843  0.36959868  0.14842821     0.20600
C994        C  0.00431204  0.37962957  0.15891890    -0.39300
C995        C  0.98194134  0.37074434  0.14946084     0.19600
C996        C  0.98093326  0.35317334  0.13099902     0.22200
C997        C  0.00231814  0.34320750  0.12045366    -0.39800
C998        C  0.02468634  0.35211611  0.12988553     0.21000
N999        N  0.04914387  0.37386919  0.15519774    -0.33100
C1000       C  0.06317239  0.35893768  0.14091785    -0.10600
C1001       C  0.04855462  0.34520101  0.12480078    -0.29400
N1002       N  0.95749276  0.34660198  0.12639067    -0.46000
C1003       C  0.94346230  0.36002510  0.14208862    -0.05300
C1004       C  0.95806656  0.37543281  0.15663854    -0.22700
H1005       H  0.00503194  0.39285696  0.17382455     0.19100
H1006       H  0.00159665  0.32904343  0.10643581     0.17900
H1007       H  0.05452114  0.33127584  0.11184331     0.14200
H1008       H  0.95209431  0.38757162  0.17128303     0.14100
H1009       H  0.05515398  0.38557658  0.16924735     0.32200
H1010       H  0.95149208  0.33316253  0.11398212     0.35000
C1011       C  0.98177805  0.13738739  0.34476201     0.20600
C1012       C  0.00313296  0.12821578  0.33351188    -0.39300
C1013       C  0.02547036  0.13711516  0.34294110     0.19600
C1014       C  0.02649760  0.15393415  0.36208494     0.22200
C1015       C  0.00512146  0.16312069  0.37336382    -0.39800
C1016       C  0.98275112  0.15417446  0.36394468     0.21000
N1017       N  0.95836634  0.13315018  0.33796097    -0.33100
C1018       C  0.94428938  0.14751537  0.35273116    -0.10600
C1019       C  0.95883769  0.16071710  0.36936398    -0.29400
N1020       N  0.04992577  0.16055920  0.36665962    -0.46000
C1021       C  0.06388852  0.14787966  0.35027899    -0.05300
C1022       C  0.04927369  0.13297746  0.33526584    -0.22700
H1023       H  0.00239446  0.11560566  0.31808271     0.19100
H1024       H  0.00583665  0.17677770  0.38787822     0.17900
H1025       H  0.95282490  0.17431134  0.38264889     0.14200
H1026       H  0.05518887  0.12143478  0.32012586     0.14100
H1027       H  0.95243218  0.12212616  0.32334197     0.32200
H1028       H  0.05596108  0.17348768  0.37958626     0.35000
C1029       C  0.87709675  0.26101836  0.22163900     0.20600
C1030       C  0.87639457  0.23559697  0.22634842    -0.39300
C1031       C  0.87819639  0.22876121  0.25120713     0.19600
C1032       C  0.88049592  0.24595025  0.26990827     0.22200
C1033       C  0.88121139  0.27135459  0.26519357    -0.39800
C1034       C  0.87941581  0.27818411  0.24035721     0.21000
N1035       N  0.87520815  0.27225804  0.19967872    -0.33100
C1036       C  0.87629133  0.29676318  0.20445224    -0.10600
C1037       C  0.87893000  0.30117397  0.22963387    -0.29400
N1038       N  0.88092755  0.23483164  0.29200132    -0.46000
C1039       C  0.87882664  0.21036596  0.28739883    -0.05300
C1040       C  0.87720197  0.20584958  0.26212649    -0.22700
H1041       H  0.87427646  0.22215516  0.21177025     0.19100
H1042       H  0.88271013  0.28482554  0.27982000     0.17900
H1043       H  0.88005954  0.31881648  0.23886074     0.14200
H1044       H  0.87484580  0.18825468  0.25303802     0.14100
H1045       H  0.87304082  0.26378323  0.18253618     0.32200
H1046       H  0.88198314  0.24341765  0.30919025     0.35000
C1047       C  0.52565922  0.36856696  0.34391393     0.20600
C1048       C  0.50442382  0.37822951  0.33286220    -0.39300
C1049       C  0.48197659  0.37010835  0.34273932     0.19600
C1050       C  0.48077843  0.35361438  0.36213897     0.22200
C1051       C  0.50202771  0.34395150  0.37319304    -0.39800
C1052       C  0.52448711  0.35205273  0.36329613     0.21000
N1053       N  0.54910479  0.37227164  0.33695737    -0.33100
C1054       C  0.56298419  0.35788919  0.35188338    -0.10600
C1055       C  0.54828758  0.34507607  0.36865145    -0.29400
N1056       N  0.45729166  0.34748371  0.36699692    -0.46000
C1057       C  0.44344287  0.36004360  0.35047581    -0.05300
C1058       C  0.45818597  0.37453064  0.33517460    -0.22700
H1059       H  0.50531112  0.39059845  0.31726060     0.19100
H1060       H  0.50112696  0.33053907  0.38790393     0.17900
H1061       H  0.55414447  0.33174695  0.38224771     0.14200
H1062       H  0.45237358  0.38575980  0.31977781     0.14100
H1063       H  0.55520178  0.38319950  0.32234328     0.32200
H1064       H  0.45115820  0.33473440  0.38003256     0.35000
C1065       C  0.74669953  0.27807048  0.36976385     0.20600
C1066       C  0.77209390  0.27351854  0.37069577    -0.39300
C1067       C  0.77894525  0.24869470  0.36929552     0.19600
C1068       C  0.76180259  0.22990240  0.36710911     0.22200
C1069       C  0.73644038  0.23445939  0.36606736    -0.39800
C1070       C  0.72959198  0.25925310  0.36754285     0.21000
N1071       N  0.73545534  0.30004336  0.37047029    -0.33100
C1072       C  0.71103580  0.29513174  0.36871793    -0.10600
C1073       C  0.70664569  0.26989852  0.36688955    -0.29400
N1074       N  0.77298300  0.20793282  0.36611072    -0.46000
C1075       C  0.79741726  0.21276736  0.36762715    -0.05300
C1076       C  0.80190059  0.23798867  0.36957494    -0.22700
H1077       H  0.78550480  0.28820415  0.37232225     0.19100
H1078       H  0.72303945  0.21978746  0.36424571     0.17900
H1079       H  0.68907696  0.26064845  0.36493171     0.14200
H1080       H  0.81954143  0.24720711  0.37093935     0.14100
H1081       H  0.74388517  0.31731082  0.37177476     0.32200
H1082       H  0.76451437  0.19072801  0.36432254     0.35000
C1083       C  0.76054596  0.37983747  0.22305757     0.20600
C1084       C  0.73521420  0.37960589  0.22807269    -0.39300
C1085       C  0.72877897  0.37944962  0.25306880     0.19600
C1086       C  0.74622357  0.37945312  0.27166364     0.22200
C1087       C  0.77156981  0.37966324  0.26665084    -0.39800
C1088       C  0.77800733  0.37988187  0.24163836     0.21000
N1089       N  0.77139663  0.37931377  0.20083292    -0.33100
C1090       C  0.79594970  0.37895341  0.20529405    -0.10600
C1091       C  0.80079419  0.37937764  0.23053102    -0.29400
N1092       N  0.73533573  0.37855372  0.29386545    -0.46000
C1093       C  0.71078905  0.37793858  0.28933538    -0.05300
C1094       C  0.70598874  0.37854298  0.26411109    -0.22700
H1095       H  0.72153094  0.37927745  0.21358401     0.19100
H1096       H  0.78525536  0.37937269  0.28113768     0.17900
H1097       H  0.81857372  0.37879548  0.23952269     0.14200
H1098       H  0.68823297  0.37785009  0.25507535     0.14100
H1099       H  0.76263364  0.37872156  0.18371620     0.32200
H1100       H  0.74406722  0.37793913  0.31099721     0.35000
C1101       C  0.52580880  0.15603006  0.13078741     0.20600
C1102       C  0.50444854  0.16676900  0.12096842    -0.39300
C1103       C  0.48203247  0.15717458  0.12963374     0.19600
C1104       C  0.48097172  0.13838690  0.14682580     0.22200
C1105       C  0.50232173  0.12769045  0.15667053    -0.39800
C1106       C  0.52472335  0.13722520  0.14795616     0.21000
N1107       N  0.54930577  0.16263724  0.12647515    -0.33100
C1108       C  0.56328555  0.14799433  0.14107979    -0.10600
C1109       C  0.54857963  0.13183855  0.15466514    -0.29400
N1110       N  0.45750324  0.13349235  0.15308248    -0.46000
C1111       C  0.44348163  0.14934715  0.13986741    -0.05300
C1112       C  0.45814369  0.16429824  0.12489955    -0.22700
H1113       H  0.50522042  0.18184246  0.10795411     0.19100
H1114       H  0.50154877  0.11337487  0.17051224     0.17900
H1115       H  0.55449737  0.11861388  0.16833638     0.14200
H1116       H  0.45218585  0.17909580  0.11296858     0.14100
H1117       H  0.55538991  0.17682063  0.11497694     0.32200
H1118       H  0.45146848  0.12076248  0.16618777     0.35000
C1119       C  0.77749425  0.26172295  0.12088208     0.20600
C1120       C  0.77292956  0.23627707  0.12042878    -0.39300
C1121       C  0.74805816  0.22929461  0.12127222     0.19600
C1122       C  0.72917989  0.24636485  0.12237206     0.22200
C1123       C  0.73374049  0.27181869  0.12280090    -0.39800
C1124       C  0.75862173  0.27879706  0.12205099     0.21000
N1125       N  0.79953377  0.27300704  0.12125550    -0.33100
C1126       C  0.79469302  0.29744778  0.12277619    -0.10600
C1127       C  0.76935732  0.30178984  0.12320995    -0.29400
N1128       N  0.70721389  0.23501492  0.12378116    -0.46000
C1129       C  0.71212421  0.21053301  0.12371686    -0.05300
C1130       C  0.73741451  0.20624357  0.12208595    -0.22700
H1131       H  0.78767427  0.22289623  0.11991766     0.19100
H1132       H  0.71902387  0.28518304  0.12406379     0.17900
H1133       H  0.76007704  0.31934823  0.12478963     0.14200
H1134       H  0.74675930  0.18865151  0.12197913     0.14100
H1135       H  0.81680827  0.26456080  0.12105202     0.32200
H1136       H  0.68997246  0.24341893  0.12518638     0.35000
C1137       C  0.76022509  0.12881284  0.27221171     0.20600
C1138       C  0.73480135  0.12889964  0.26740991    -0.39300
C1139       C  0.72815573  0.12810279  0.24243677     0.19600
C1140       C  0.74552720  0.12734784  0.22377341     0.22200
C1141       C  0.77087283  0.12726276  0.22857886    -0.39800
C1142       C  0.77750564  0.12799998  0.25347619     0.21000
N1143       N  0.77138109  0.13000961  0.29427255    -0.33100
C1144       C  0.79591220  0.12995788  0.28947688    -0.10600
C1145       C  0.80042506  0.12868973  0.26423949    -0.29400
N1146       N  0.73462660  0.12750438  0.20161133    -0.46000
C1147       C  0.71010870  0.12841144  0.20610049    -0.05300
C1148       C  0.70530528  0.12870501  0.23137330    -0.22700
H1149       H  0.72123640  0.12980290  0.28199636     0.19100
H1150       H  0.78444375  0.12693771  0.21397628     0.17900
H1151       H  0.81809603  0.12868758  0.25500505     0.14200
H1152       H  0.68755776  0.12987341  0.24038508     0.14100
H1153       H  0.76284457  0.13112657  0.31148739     0.32200
H1154       H  0.74337228  0.12750947  0.18446813     0.35000
C1155       C  0.62946434  0.26014081  0.27081798     0.20600
C1156       C  0.63035665  0.23476831  0.26600886    -0.39300
C1157       C  0.62937059  0.22804663  0.24109577     0.19600
C1158       C  0.62763733  0.24527865  0.22240052     0.22200
C1159       C  0.62671289  0.27066407  0.22721447    -0.39800
C1160       C  0.62772965  0.27739612  0.25214540     0.21000
N1161       N  0.63079378  0.27124115  0.29288842    -0.33100
C1162       C  0.62998233  0.29576843  0.28827062    -0.10600
C1163       C  0.62803002  0.30033611  0.26304877    -0.29400
N1164       N  0.62784049  0.23420717  0.20026281    -0.46000
C1165       C  0.62974149  0.20974827  0.20491434    -0.05300
C1166       C  0.63065257  0.20518347  0.23018291    -0.22700
H1167       H  0.63203339  0.22127420  0.28057135     0.19100
H1168       H  0.62566875  0.28418480  0.21261790     0.17900
H1169       H  0.62732889  0.31803625  0.25391966     0.14200
H1170       H  0.63258416  0.18756949  0.23930218     0.14100
H1171       H  0.63255498  0.26266152  0.30999306     0.32200
H1172       H  0.62717311  0.24278269  0.18308098     0.35000
C1173       C  0.48188626  0.63827135  0.34554151     0.20600
C1174       C  0.50324874  0.62797152  0.33535444    -0.39300
C1175       C  0.52554059  0.63630365  0.34537385     0.19600
C1176       C  0.52650667  0.65359462  0.36410604     0.22200
C1177       C  0.50511813  0.66384341  0.37435835    -0.39800
C1178       C  0.48280553  0.65550419  0.36432821     0.21000
N1179       N  0.45857730  0.63458759  0.33813923    -0.33100
C1180       C  0.44453611  0.64964907  0.35223504    -0.10600
C1181       C  0.45897906  0.66289531  0.36889284    -0.29400
N1182       N  0.54994368  0.65991342  0.36898660    -0.46000
C1183       C  0.56396244  0.64666331  0.35313187    -0.05300
C1184       C  0.54939621  0.63153981  0.33829754    -0.22700
H1185       H  0.50258724  0.61503718  0.32019029     0.19100
H1186       H  0.50582246  0.67787932  0.38850661     0.17900
H1187       H  0.45296438  0.67678736  0.38186347     0.14200
H1188       H  0.55536935  0.61975360  0.32336827     0.14100
H1189       H  0.45269059  0.62317056  0.32380125     0.32200
H1190       H  0.55593477  0.67328217  0.38147911     0.35000
C1191       C  0.63757500  0.48059194  0.34668640     0.20600
C1192       C  0.62798122  0.50198334  0.33589304    -0.39300
C1193       C  0.63732330  0.52429421  0.34496469     0.19600
C1194       C  0.65489941  0.52526208  0.36340144     0.22200
C1195       C  0.66448661  0.50384418  0.37425019    -0.39800
C1196       C  0.65513543  0.48149371  0.36514880     0.21000
N1197       N  0.63302988  0.45720489  0.33998830    -0.33100
C1198       C  0.64793268  0.44304952  0.35410868    -0.10600
C1199       C  0.66184785  0.45754015  0.37021179    -0.29400
N1200       N  0.66184182  0.54866579  0.36765241    -0.46000
C1201       C  0.64865399  0.56266946  0.35173416    -0.05300
C1202       C  0.63305592  0.54810738  0.33739251    -0.22700
H1203       H  0.61476763  0.50128710  0.32098738     0.19100
H1204       H  0.67873210  0.50451509  0.38817671     0.17900
H1205       H  0.67594283  0.45146277  0.38291233     0.14200
H1206       H  0.62097038  0.55405584  0.32271505     0.14100
H1207       H  0.62138003  0.45132921  0.32584151     0.32200
H1208       H  0.67531963  0.55465227  0.38002315     0.35000
C1209       C  0.52550260  0.85090367  0.13073961     0.20600
C1210       C  0.50408220  0.84102889  0.12018631    -0.39300
C1211       C  0.48184073  0.85071340  0.12899929     0.19600
C1212       C  0.48101882  0.86884882  0.14692361     0.22200
C1213       C  0.50242778  0.87870061  0.15747717    -0.39800
C1214       C  0.52464631  0.86900973  0.14869054     0.21000
N1215       N  0.54881944  0.84379862  0.12663117    -0.33100
C1216       C  0.56284649  0.85738791  0.14219562    -0.10600
C1217       C  0.54844478  0.87341754  0.15614706    -0.29400
N1218       N  0.45765749  0.87376191  0.15332227    -0.46000
C1219       C  0.44349495  0.85852881  0.13950955    -0.05300
C1220       C  0.45791064  0.84399264  0.12397523    -0.22700
H1221       H  0.50466960  0.82639161  0.10665665     0.19100
H1222       H  0.50180702  0.89237819  0.17197407     0.17900
H1223       H  0.55448678  0.88589934  0.17048523     0.14200
H1224       H  0.45177240  0.82959341  0.11160928     0.14100
H1225       H  0.55472062  0.82995638  0.11463973     0.32200
H1226       H  0.45178830  0.88591893  0.16703163     0.35000
C1227       C  0.65389324  0.98008496  0.13153523     0.20600
C1228       C  0.66462426  0.00134249  0.12147823    -0.39300
C1229       C  0.65521855  0.02377873  0.13009517     0.19600
C1230       C  0.63651100  0.02494420  0.14738491     0.22200
C1231       C  0.62573736  0.00366582  0.15741746    -0.39800
C1232       C  0.63518883  0.98120936  0.14883216     0.21000
N1233       N  0.66075445  0.95666604  0.12762449    -0.33100
C1234       C  0.64646205  0.94273047  0.14263844    -0.10600
C1235       C  0.63014146  0.95737707  0.15605117    -0.29400
N1236       N  0.63208926  0.04841612  0.15384069    -0.46000
C1237       C  0.64820461  0.06229246  0.14070681    -0.05300
C1238       C  0.66280581  0.04757170  0.12552840    -0.22700
H1239       H  0.67973979  0.00047359  0.10850501     0.19100
H1240       H  0.61162403  0.00454041  0.17147352     0.17900
H1241       H  0.61716395  0.95148737  0.17000124     0.14200
H1242       H  0.67777552  0.05339100  0.11370304     0.14100
H1243       H  0.67497710  0.95062750  0.11616326     0.32200
H1244       H  0.61961705  0.05452022  0.16715639     0.35000
C1245       C  0.62624047  0.72886347  0.25539720     0.20600
C1246       C  0.62503159  0.73358785  0.23004693    -0.39300
C1247       C  0.62663187  0.75843125  0.22327030     0.19600
C1248       C  0.62918218  0.77712015  0.24044797     0.22200
C1249       C  0.63033882  0.77240551  0.26580786    -0.39800
C1250       C  0.62876280  0.74755711  0.27257861     0.21000
N1251       N  0.62628364  0.70676467  0.26644301    -0.33100
C1252       C  0.62893458  0.71142050  0.29081382    -0.10600
C1253       C  0.63037282  0.73666416  0.29539758    -0.29400
N1254       N  0.63096874  0.79907942  0.22926187    -0.46000
C1255       C  0.62962119  0.79433573  0.20478792    -0.05300
C1256       C  0.62687071  0.76918410  0.20031438    -0.22700
H1257       H  0.62342360  0.71896974  0.21657802     0.19100
H1258       H  0.63270254  0.78696505  0.27923220     0.17900
H1259       H  0.63305729  0.74574877  0.31294681     0.14200
H1260       H  0.62560040  0.76000117  0.18266095     0.14100
H1261       H  0.62520376  0.68956535  0.25786851     0.32200
H1262       H  0.63333964  0.81619741  0.23774670     0.35000
C1263       C  0.85370182  0.52670883  0.12894860     0.20600
C1264       C  0.84377400  0.50514223  0.11873625    -0.39300
C1265       C  0.85277702  0.48299910  0.12844852     0.19600
C1266       C  0.87035994  0.48235791  0.14690152     0.22200
C1267       C  0.88037613  0.50393006  0.15703898    -0.39800
C1268       C  0.87133748  0.52607870  0.14735292     0.21000
N1269       N  0.84676645  0.54998784  0.12430562    -0.33100
C1270       C  0.85997079  0.56426596  0.13998217    -0.10600
C1271       C  0.87565009  0.55002219  0.15449726    -0.29400
N1272       N  0.87440719  0.45909131  0.15427253    -0.46000
C1273       C  0.85916467  0.44484768  0.14051737    -0.05300
C1274       C  0.84555371  0.45909405  0.12405384    -0.22700
H1275       H  0.82943465  0.50557424  0.10490084     0.19100
H1276       H  0.89353818  0.50351128  0.17199959     0.17900
H1277       H  0.88760639  0.55623950  0.16919797     0.14200
H1278       H  0.83137250  0.45291247  0.11146726     0.14100
H1279       H  0.83310609  0.55568906  0.11204095     0.32200
H1280       H  0.88600381  0.45338583  0.16850291     0.35000
C1281       C  0.98058905  0.63824494  0.14874943     0.20600
C1282       C  0.00191602  0.62773634  0.15886872    -0.39300
C1283       C  0.02431598  0.63685812  0.14971314     0.19600
C1284       C  0.02533568  0.65506000  0.13189261     0.22200
C1285       C  0.00404698  0.66554169  0.12179417    -0.39800
C1286       C  0.98169127  0.65641106  0.13090074     0.21000
N1287       N  0.95712399  0.63385706  0.15532271    -0.33100
C1288       C  0.94324509  0.64944409  0.14163833    -0.10600
C1289       C  0.95791983  0.66367245  0.12607109    -0.29400
N1290       N  0.04874223  0.66154495  0.12726643    -0.46000
C1291       C  0.06278983  0.64745318  0.14228350    -0.05300
C1292       C  0.04822202  0.63171732  0.15650266    -0.22700
H1293       H  0.00113153  0.61395026  0.17323890     0.19100
H1294       H  0.00484022  0.68017882  0.10829231     0.17900
H1295       H  0.95205959  0.67812737  0.11368035     0.14200
H1296       H  0.05424865  0.61900199  0.17060339     0.14100
H1297       H  0.95101488  0.62168109  0.16891271     0.32200
H1298       H  0.05473105  0.67532087  0.11523927     0.35000
C1299       C  0.72877311  0.62737498  0.25306260     0.20600
C1300       C  0.73353813  0.62588982  0.22767451    -0.39300
C1301       C  0.75847944  0.62680342  0.22089171     0.19600
C1302       C  0.77716270  0.62895131  0.23811354     0.22200
C1303       C  0.77240584  0.63034449  0.26344368    -0.39800
C1304       C  0.74752767  0.62947744  0.27020596     0.21000
N1305       N  0.70667743  0.62776489  0.26423659    -0.33100
C1306       C  0.71146024  0.63009279  0.28864891    -0.10600
C1307       C  0.73673661  0.63115880  0.29307133    -0.29400
N1308       N  0.79920197  0.63038155  0.22702064    -0.46000
C1309       C  0.79460529  0.62926235  0.20252431    -0.05300
C1310       C  0.76939709  0.62691908  0.19794539    -0.22700
H1311       H  0.71891053  0.62458434  0.21419558     0.19100
H1312       H  0.78699487  0.63236661  0.27687798     0.17900
H1313       H  0.74594895  0.63332562  0.31061691     0.14200
H1314       H  0.76027780  0.62606631  0.18024217     0.14100
H1315       H  0.68942755  0.62679017  0.25576612     0.32200
H1316       H  0.81629065  0.63257967  0.23559587     0.35000
C1317       C  0.77739272  0.74652533  0.11939899     0.20600
C1318       C  0.77231240  0.77184337  0.11927086    -0.39300
C1319       C  0.74728231  0.77815110  0.11941220     0.19600
C1320       C  0.72875721  0.76058724  0.11961789     0.22200
C1321       C  0.73383918  0.73528806  0.11963344    -0.39800
C1322       C  0.75884732  0.72898507  0.11954384     0.21000
N1323       N  0.79961874  0.73576059  0.12043387    -0.33100
C1324       C  0.79514430  0.71120675  0.12132217    -0.10600
C1325       C  0.76994196  0.70626440  0.12068023    -0.29400
N1326       N  0.70652893  0.77130039  0.12090057    -0.46000
C1327       C  0.71093062  0.79586279  0.12161162    -0.05300
C1328       C  0.73612712  0.80086784  0.12056932    -0.22700
H1329       H  0.78676353  0.78559921  0.11959613     0.19100
H1330       H  0.71939548  0.72153474  0.12023181     0.17900
H1331       H  0.76095216  0.68847795  0.12158803     0.14200
H1332       H  0.74507797  0.81868212  0.12131368     0.14100
H1333       H  0.81672514  0.74458435  0.12104268     0.32200
H1334       H  0.68946368  0.76242883  0.12184404     0.35000
C1335       C  0.02541620  0.86815584  0.34582868     0.20600
C1336       C  0.00404940  0.87846133  0.33572928    -0.39300
C1337       C  0.98177525  0.86986656  0.34551509     0.19600
C1338       C  0.98079561  0.85233194  0.36399021     0.22200
C1339       C  0.00222098  0.84207071  0.37419604    -0.39800
C1340       C  0.02455847  0.85066302  0.36435357     0.21000
N1341       N  0.04869331  0.87208199  0.33848751    -0.33100
C1342       C  0.06284138  0.85692060  0.35231544    -0.10600
C1343       C  0.04846639  0.84335031  0.36879831    -0.29400
N1344       N  0.95733271  0.84588559  0.36867662    -0.46000
C1345       C  0.94335391  0.85932909  0.35295423    -0.05300
C1346       C  0.95795821  0.87465512  0.33839801    -0.22700
H1347       H  0.00470310  0.89160510  0.32076369     0.19100
H1348       H  0.00153072  0.82784707  0.38813777     0.17900
H1349       H  0.05457431  0.82931515  0.38154625     0.14200
H1350       H  0.95203181  0.88667666  0.32365900     0.14100
H1351       H  0.05449795  0.88373935  0.32432347     0.32200
H1352       H  0.95129895  0.83238570  0.38099073     0.35000
C1353       C  0.85197052  0.98157508  0.36359000     0.20600
C1354       C  0.84136123  0.00299404  0.37344131    -0.39300
C1355       C  0.85082148  0.02533344  0.36448564     0.19600
C1356       C  0.86944971  0.02623615  0.34709048     0.22200
C1357       C  0.88008221  0.00483450  0.33729098    -0.39800
C1358       C  0.87059610  0.98251721  0.34619408     0.21000
N1359       N  0.84496948  0.95817184  0.36764356    -0.33100
C1360       C  0.85908613  0.94413712  0.35255584    -0.10600
C1361       C  0.87545919  0.95866548  0.33906896    -0.29400
N1362       N  0.87408529  0.04960310  0.34039628    -0.46000
C1363       C  0.85823538  0.06373031  0.35352480    -0.05300
C1364       C  0.84351102  0.04924449  0.36887583    -0.22700
H1365       H  0.82630006  0.00231060  0.38649092     0.19100
H1366       H  0.89413578  0.00551009  0.32316367     0.17900
H1367       H  0.88828682  0.95268989  0.32502814     0.14200
H1368       H  0.82872379  0.05529918  0.38079409     0.14100
H1369       H  0.83070467  0.95222924  0.37911765     0.32200
H1370       H  0.88661610  0.05548385  0.32703282     0.35000
C1371       C  0.77777147  0.76087554  0.37199062     0.20600
C1372       C  0.77303431  0.73548492  0.37162936    -0.39300
C1373       C  0.74810639  0.72875365  0.37202292     0.19600
C1374       C  0.72934833  0.74598748  0.37271995     0.22200
C1375       C  0.73409094  0.77137827  0.37305605    -0.39800
C1376       C  0.75901638  0.77811291  0.37266011     0.21000
N1377       N  0.79984280  0.77200762  0.37102055    -0.33100
C1378       C  0.79509229  0.79650342  0.37098268    -0.10600
C1379       C  0.76983772  0.80104489  0.37206296    -0.29400
N1380       N  0.70723822  0.73488115  0.37224126    -0.46000
C1381       C  0.71196345  0.71040560  0.37115773    -0.05300
C1382       C  0.73724759  0.70585554  0.37106706    -0.22700
H1383       H  0.78765929  0.72198737  0.37077776     0.19100
H1384       H  0.71945543  0.78488654  0.37327209     0.17900
H1385       H  0.76064288  0.81871639  0.37190667     0.14200
H1386       H  0.74642058  0.68820766  0.36991018     0.14100
H1387       H  0.81703970  0.76346306  0.36995801     0.32200
H1388       H  0.69002137  0.74344088  0.37216912     0.35000
C1389       C  0.74591651  0.87725881  0.22260350     0.20600
C1390       C  0.77127630  0.87701525  0.22749013    -0.39300
C1391       C  0.77782943  0.87719455  0.25245466     0.19600
C1392       C  0.76045491  0.87754295  0.27112355     0.22200
C1393       C  0.73508904  0.87778136  0.26624584    -0.39800
C1394       C  0.72854054  0.87764479  0.24127317     0.21000
N1395       N  0.73495312  0.87648652  0.20044617    -0.33100
C1396       C  0.71041921  0.87631549  0.20504627    -0.10600
C1397       C  0.70569839  0.87711309  0.23030128    -0.29400
N1398       N  0.77142532  0.87714712  0.29327783    -0.46000
C1399       C  0.79596031  0.87656478  0.28867048    -0.05300
C1400       C  0.80067628  0.87658138  0.26341782    -0.22700
H1401       H  0.78489152  0.87647908  0.21293525     0.19100
H1402       H  0.72146804  0.87781442  0.28080865     0.17900
H1403       H  0.68795634  0.87679244  0.23939834     0.14200
H1404       H  0.81840867  0.87588051  0.25432992     0.14100
H1405       H  0.74362771  0.87566309  0.18328715     0.32200
H1406       H  0.76274688  0.87700299  0.31045911     0.35000
C1407       C  0.87617823  0.76085336  0.27143122     0.20600
C1408       C  0.87451729  0.73560306  0.26620590    -0.39300
C1409       C  0.87550116  0.72928589  0.24118058     0.19600
C1410       C  0.87784903  0.74676824  0.22276932     0.22200
C1411       C  0.87949382  0.77200877  0.22799796    -0.39800
C1412       C  0.87858442  0.77832127  0.25301504     0.21000
N1413       N  0.87512349  0.77167158  0.29366360    -0.33100
C1414       C  0.87677867  0.79620460  0.28932820    -0.10600
C1415       C  0.87902976  0.80105413  0.26420585    -0.29400
N1416       N  0.87781869  0.73606179  0.20045745    -0.46000
C1417       C  0.87548585  0.71157792  0.20470870    -0.05300
C1418       C  0.87403195  0.70663776  0.22988594    -0.22700
H1419       H  0.87242406  0.72191220  0.28053948     0.19100
H1420       H  0.88111865  0.78573477  0.21364000     0.17900
H1421       H  0.88027885  0.81884558  0.25530787     0.14200
H1422       H  0.87181107  0.68889446  0.23869653     0.14100
H1423       H  0.87289798  0.76294349  0.31066662     0.32200
H1424       H  0.87908254  0.74487794  0.18340533     0.35000
C1425       C  0.15564867  0.36803500  0.01746022     0.20600
C1426       C  0.16672348  0.37727083  0.99603073    -0.39300
C1427       C  0.15723351  0.36820215  0.97380397     0.19600
C1428       C  0.13817578  0.35124002  0.97298824     0.22200
C1429       C  0.12712064  0.34198906  0.99442294    -0.39800
C1430       C  0.13662116  0.35103807  0.01665754     0.21000
N1431       N  0.16237613  0.37251745  0.04081574    -0.33100
C1432       C  0.14768619  0.35810432  0.05497701    -0.10600
C1433       C  0.13124838  0.34457305  0.04058045    -0.29400
N1434       N  0.13339862  0.34455319  0.94966251    -0.46000
C1435       C  0.14959088  0.35728761  0.93554265    -0.05300
C1436       C  0.16469224  0.37231879  0.94993496    -0.22700
H1437       H  0.18202743  0.39006238  0.99663522     0.19100
H1438       H  0.11266934  0.32824371  0.99384084     0.17900
H1439       H  0.11800370  0.33097334  0.04671435     0.14200
H1440       H  0.17968121  0.38398517  0.94382563     0.14100
H1441       H  0.17681309  0.38383932  0.04667781     0.32200
H1442       H  0.12045529  0.33155841  0.94379202     0.35000
C1443       C  0.37206185  0.15077196  0.97256445     0.20600
C1444       C  0.38204721  0.16146535  0.99386899    -0.39300
C1445       C  0.37232696  0.15295000  0.01622678     0.19600
C1446       C  0.35413155  0.13507808  0.01726040     0.22200
C1447       C  0.34424789  0.12429622  0.99597675    -0.39800
C1448       C  0.35388641  0.13287543  0.97363562     0.21000
N1449       N  0.37632320  0.15748087  0.94915204    -0.33100
C1450       C  0.36053806  0.14397197  0.93528303    -0.10600
C1451       C  0.34649607  0.12815762  0.94986802    -0.29400
N1452       N  0.34668088  0.13152081  0.04056157    -0.46000
C1453       C  0.36011577  0.14732674  0.05447673    -0.05300
C1454       C  0.37644729  0.16089408  0.03996915    -0.22700
H1455       H  0.39560567  0.17608290  0.99306348     0.19100
H1456       H  0.32940749  0.11097851  0.99672878     0.17900
H1457       H  0.33170060  0.11611003  0.94402689     0.14200
H1458       H  0.38882511  0.17539140  0.04586194     0.14100
H1459       H  0.38816074  0.17142888  0.94313699     0.32200
H1460       H  0.33264171  0.11975303  0.04650165     0.35000
C1461       C  0.26025630  0.22727512  0.87153098     0.20600
C1462       C  0.23491566  0.23238286  0.87122059    -0.39300
C1463       C  0.22855981  0.25741723  0.87044498     0.19600
C1464       C  0.24609322  0.27595381  0.86998393     0.22200
C1465       C  0.27142888  0.27085507  0.87034646    -0.39800
C1466       C  0.27777952  0.24582432  0.87115047     0.21000
N1467       N  0.27106153  0.20500068  0.87133183    -0.33100
C1468       C  0.29565560  0.20939488  0.87077191    -0.10600
C1469       C  0.30053624  0.23465494  0.87075396    -0.29400
N1470       N  0.23530786  0.29818208  0.86860521    -0.46000
C1471       C  0.21071224  0.29378261  0.86818526    -0.05300
C1472       C  0.20580062  0.26856263  0.86935931    -0.22700
H1473       H  0.22116449  0.21792592  0.87122974     0.19100
H1474       H  0.28518457  0.28529502  0.86969780     0.17900
H1475       H  0.31833213  0.24362610  0.86982436     0.14200
H1476       H  0.18798460  0.25959006  0.86909292     0.14100
H1477       H  0.26224039  0.18788682  0.87099190     0.32200
H1478       H  0.24414401  0.31527096  0.86774499     0.35000
C1479       C  0.35058752  0.36827806  0.51806411     0.20600
C1480       C  0.33955316  0.37811326  0.49686984    -0.39300
C1481       C  0.34947138  0.37018084  0.47436513     0.19600
C1482       C  0.36881190  0.35364248  0.47311885     0.22200
C1483       C  0.37976937  0.34375136  0.49429569    -0.39800
C1484       C  0.36992591  0.35174429  0.51677714     0.21000
N1485       N  0.34379871  0.37195214  0.54156836    -0.33100
C1486       C  0.35883181  0.35755641  0.55533406    -0.10600
C1487       C  0.37546042  0.34475796  0.54051530    -0.29400
N1488       N  0.37395343  0.34793008  0.44961842    -0.46000
C1489       C  0.35773226  0.36082685  0.43574404    -0.05300
C1490       C  0.34223736  0.37505686  0.45052841    -0.22700
H1491       H  0.32405494  0.39059097  0.49782640     0.19100
H1492       H  0.39450636  0.33038667  0.49332397     0.17900
H1493       H  0.38908023  0.33141059  0.54625981     0.14200
H1494       H  0.32699843  0.38647448  0.44468697     0.14100
H1495       H  0.32925247  0.38288619  0.54778118     0.32200
H1496       H  0.38706238  0.33528567  0.44345633     0.35000
C1497       C  0.37952377  0.27572285  0.73799452     0.20600
C1498       C  0.38005826  0.27100765  0.76337971    -0.39300
C1499       C  0.37829721  0.24616288  0.77013775     0.19600
C1500       C  0.37614336  0.22746686  0.75291729     0.22200
C1501       C  0.37554936  0.23218082  0.72753011    -0.39800
C1502       C  0.37737908  0.25702684  0.72077074     0.21000
N1503       N  0.38011283  0.29780535  0.72690764    -0.33100
C1504       C  0.37827924  0.29315107  0.70245030    -0.10600
C1505       C  0.37667466  0.26790711  0.69788113    -0.29400
N1506       N  0.37455410  0.20546543  0.76406271    -0.46000
C1507       C  0.37568831  0.21018800  0.78855372    -0.05300
C1508       C  0.37797840  0.23537631  0.79308192    -0.22700
H1509       H  0.38151110  0.28562002  0.77687160     0.19100
H1510       H  0.37363218  0.21760315  0.71405605     0.17900
H1511       H  0.37448696  0.25881816  0.68026654     0.14200
H1512       H  0.37912742  0.24453855  0.81075484     0.14100
H1513       H  0.38109740  0.31500167  0.73549179     0.32200
H1514       H  0.37263276  0.18831633  0.75553519     0.35000
C1515       C  0.25982346  0.37567403  0.72059743     0.20600
C1516       C  0.23442119  0.37539601  0.72535641    -0.39300
C1517       C  0.22772139  0.37663601  0.75027023     0.19600
C1518       C  0.24501004  0.37811233  0.76895873     0.22200
C1519       C  0.27037837  0.37845839  0.76419503    -0.39800
C1520       C  0.27707209  0.37712380  0.73932108     0.21000
N1521       N  0.27097247  0.37385056  0.69859122    -0.33100
C1522       C  0.29547565  0.37403514  0.70339188    -0.10600
C1523       C  0.29999765  0.37612042  0.72858113    -0.29400
N1524       N  0.23400729  0.37803902  0.79108887    -0.46000
C1525       C  0.20953284  0.37642003  0.78649446    -0.05300
C1526       C  0.20486123  0.37562697  0.76123473    -0.22700
H1527       H  0.22090453  0.37386075  0.71078517     0.19100
H1528       H  0.28391266  0.37921451  0.77880843     0.17900
H1529       H  0.31766882  0.37649238  0.73779794     0.14200
H1530       H  0.18719639  0.37381111  0.75217190     0.14100
H1531       H  0.26244360  0.37220511  0.68141940     0.32200
H1532       H  0.24265986  0.37845173  0.80826778     0.35000
C1533       C  0.13744723  0.15234906  0.51771914     0.20600
C1534       C  0.12687755  0.16237653  0.49638299    -0.39300
C1535       C  0.13621987  0.15352019  0.47398025     0.19600
C1536       C  0.15464788  0.13596203  0.47291756     0.22200
C1537       C  0.16520397  0.12591221  0.49426089    -0.39800
C1538       C  0.15589181  0.13481037  0.51667133     0.21000
N1539       N  0.13291864  0.15889978  0.54115411    -0.33100
C1540       C  0.14864845  0.14553162  0.55517469    -0.10600
C1541       C  0.16319596  0.13018296  0.54054454    -0.29400
N1542       N  0.16156242  0.13195660  0.44949013    -0.46000
C1543       C  0.14762251  0.14724656  0.43553287    -0.05300
C1544       C  0.13141909  0.16082084  0.45015479    -0.22700
H1545       H  0.11298356  0.17662648  0.49717311     0.19100
H1546       H  0.18011319  0.11272718  0.49347360     0.17900
H1547       H  0.17786384  0.11809391  0.54649176     0.14200
H1548       H  0.11877632  0.17503909  0.44426877     0.14100
H1549       H  0.12053363  0.17232378  0.54715874     0.32200
H1550       H  0.17570599  0.12039774  0.44348840     0.35000
C1551       C  0.12711802  0.22890678  0.73752192     0.20600
C1552       C  0.12629565  0.23367843  0.76287685    -0.39300
C1553       C  0.12684520  0.25857995  0.76957031     0.19600
C1554       C  0.12813005  0.27731618  0.75233095     0.22200
C1555       C  0.12896425  0.27254475  0.72693613    -0.39800
C1556       C  0.12837689  0.24759713  0.72022871     0.21000
N1557       N  0.12754399  0.20677388  0.72653852    -0.33100
C1558       C  0.12909358  0.21133355  0.70205586    -0.10600
C1559       C  0.12958120  0.23660836  0.69736519    -0.29400
N1560       N  0.12911902  0.29937084  0.76349308    -0.46000
C1561       C  0.12854453  0.29458829  0.78799272    -0.05300
C1562       C  0.12706853  0.26935841  0.79250305    -0.22700
H1563       H  0.12561173  0.21906055  0.77640511     0.19100
H1564       H  0.13026687  0.28714607  0.71343357     0.17900
H1565       H  0.13116798  0.24567395  0.67968680     0.14200
H1566       H  0.12674135  0.26014192  0.81017063     0.14100
H1567       H  0.12720962  0.18960568  0.73521218     0.32200
H1568       H  0.13060087  0.31656512  0.75498409     0.35000
C1569       C  0.22898348  0.12846457  0.73871388     0.20600
C1570       C  0.23387072  0.12799137  0.76402909    -0.39300
C1571       C  0.25882069  0.12820111  0.77049223     0.19600
C1572       C  0.27746099  0.12886957  0.75308205     0.22200
C1573       C  0.27257743  0.12930636  0.72776028    -0.39800
C1574       C  0.24762145  0.12904616  0.72129692     0.21000
N1575       N  0.20682080  0.12900335  0.72784187    -0.33100
C1576       C  0.21142436  0.12992712  0.70334543    -0.10600
C1577       C  0.23664109  0.12990824  0.69851865    -0.29400
N1578       N  0.29960103  0.12952764  0.76399716    -0.46000
C1579       C  0.29496944  0.12928062  0.78850956    -0.05300
C1580       C  0.26976656  0.12842254  0.79330066    -0.22700
H1581       H  0.21933237  0.12774375  0.77767325     0.19100
H1582       H  0.28711056  0.13003966  0.71412613     0.17900
H1583       H  0.24568602  0.13086255  0.68077508     0.14200
H1584       H  0.26069897  0.12838343  0.81105767     0.14100
H1585       H  0.18965718  0.12905061  0.73655195     0.32200
H1586       H  0.31675986  0.13042192  0.75531778     0.35000
C1587       C  0.26159191  0.27533184  0.62013463     0.20600
C1588       C  0.23618805  0.27063808  0.62026228    -0.39300
C1589       C  0.22940640  0.24573448  0.62073924     0.19600
C1590       C  0.24661532  0.22695151  0.62109406     0.22200
C1591       C  0.27203865  0.23164968  0.62099727    -0.39800
C1592       C  0.27882808  0.25657152  0.62048528     0.21000
N1593       N  0.27271400  0.29741526  0.62049373    -0.33100
C1594       C  0.29721437  0.29271914  0.62117110    -0.10600
C1595       C  0.30177676  0.26743767  0.62106792    -0.29400
N1596       N  0.23542784  0.20489231  0.62194529    -0.46000
C1597       C  0.21092440  0.20967525  0.62210378    -0.05300
C1598       C  0.20644667  0.23495287  0.62139476    -0.22700
H1599       H  0.22270647  0.28530080  0.62025623     0.19100
H1600       H  0.28552010  0.21699891  0.62154623     0.17900
H1601       H  0.31944370  0.25827824  0.62197890     0.14200
H1602       H  0.18879237  0.24418121  0.62162037     0.14100
H1603       H  0.26413358  0.31462323  0.62082856     0.32200
H1604       H  0.24394342  0.18766465  0.62262720     0.35000
C1605       C  0.36801500  0.52344639  0.64719966     0.20600
C1606       C  0.37869945  0.50203574  0.65686122    -0.39300
C1607       C  0.36874963  0.47976448  0.64833934     0.19600
C1608       C  0.34961252  0.47888408  0.63150805     0.22200
C1609       C  0.33891434  0.50028303  0.62187011    -0.39800
C1610       C  0.34889567  0.52254330  0.63035024     0.21000
N1611       N  0.37317629  0.54684942  0.65339837    -0.33100
C1612       C  0.35715355  0.56091325  0.64045250    -0.10600
C1613       C  0.34182608  0.54640930  0.62576533    -0.29400
N1614       N  0.34264928  0.45551609  0.62731102    -0.46000
C1615       C  0.35738716  0.44143050  0.64167222    -0.05300
C1616       C  0.37397245  0.45588732  0.65498035    -0.22700
H1617       H  0.39325955  0.50267295  0.67045833     0.19100
H1618       H  0.32357314  0.49965442  0.60915865     0.17900
H1619       H  0.32678682  0.55245443  0.61417971     0.14200
H1620       H  0.38742184  0.44980234  0.66835974     0.14100
H1621       H  0.38612463  0.55280310  0.66632379     0.32200
H1622       H  0.32824224  0.44959337  0.61601344     0.35000
C1623       C  0.36812635  0.65484962  0.51861121     0.20600
C1624       C  0.37762329  0.66631560  0.49748226    -0.39300
C1625       C  0.36991836  0.65637781  0.47491363     0.19600
C1626       C  0.35396961  0.63651063  0.47347737     0.22200
C1627       C  0.34451513  0.62498531  0.49463807    -0.39800
C1628       C  0.35219385  0.63496475  0.51723963     0.21000
N1629       N  0.37138606  0.66185883  0.54211457    -0.33100
C1630       C  0.35732391  0.64646505  0.55588288    -0.10600
C1631       C  0.34517212  0.62931768  0.54101228    -0.29400
N1632       N  0.34803786  0.63176155  0.44989772    -0.46000
C1633       C  0.36017496  0.64881812  0.43623248    -0.05300
C1634       C  0.37420109  0.66434127  0.45120604    -0.22700
H1635       H  0.38951476  0.68230350  0.49853430     0.19100
H1636       H  0.33149805  0.60990124  0.49357389     0.17900
H1637       H  0.33217729  0.61530245  0.54673025     0.14200
H1638       H  0.38502306  0.68013506  0.44560048     0.14100
H1639       H  0.38182243  0.67680635  0.54832186     0.32200
H1640       H  0.33565830  0.61842861  0.44358716     0.35000
C1641       C  0.15287189  0.52431463  0.86152424     0.20600
C1642       C  0.16272399  0.50301787  0.87234045    -0.39300
C1643       C  0.15405389  0.48058216  0.86284301     0.19600
C1644       C  0.13689816  0.47948471  0.84401579     0.22200
C1645       C  0.12707863  0.50076043  0.83319375    -0.39800
C1646       C  0.13572147  0.52317086  0.84269733     0.21000
N1647       N  0.15918908  0.54779711  0.86619938    -0.33100
C1648       C  0.14606562  0.56168677  0.85014124    -0.10600
C1649       C  0.13109399  0.54697008  0.83529707    -0.29400
N1650       N  0.13282141  0.45605642  0.83720492    -0.46000
C1651       C  0.14761651  0.44209515  0.85164138    -0.05300
C1652       C  0.16101575  0.45673239  0.86801541    -0.22700
H1653       H  0.17661992  0.50385620  0.88660614     0.19100
H1654       H  0.11416672  0.49992364  0.81803140     0.17900
H1655       H  0.11926941  0.55282040  0.82036895     0.14200
H1656       H  0.17484068  0.45081901  0.88108320     0.14100
H1657       H  0.17232001  0.55391542  0.87887284     0.32200
H1658       H  0.12146258  0.45003091  0.82288355     0.35000
C1659       C  0.13604800  0.65070839  0.97360876     0.20600
C1660       C  0.12451457  0.65935816  0.99506868    -0.39300
C1661       C  0.13487057  0.65143896  0.01736118     0.19600
C1662       C  0.15515090  0.63604409  0.01821667     0.22200
C1663       C  0.16666151  0.62735569  0.99675381    -0.39800
C1664       C  0.15631146  0.63529320  0.97445662     0.21000
N1665       N  0.13071112  0.65683390  0.95023167    -0.33100
C1666       C  0.14772679  0.64530007  0.93605784    -0.10600
C1667       C  0.16393134  0.63157023  0.95052547    -0.29400
N1668       N  0.16254872  0.63266355  0.04158785    -0.46000
C1669       C  0.14701771  0.64617866  0.05571758    -0.05300
C1670       C  0.12935636  0.65796873  0.04126121    -0.22700
H1671       H  0.10910657  0.67196442  0.99445476     0.19100
H1672       H  0.18293604  0.61588689  0.99737151     0.17900
H1673       H  0.17978190  0.62114745  0.94442963     0.14200
H1674       H  0.11521684  0.67063625  0.04731076     0.14100
H1675       H  0.11687807  0.66881105  0.94435792     0.32200
H1676       H  0.17792009  0.62272220  0.04745013     0.35000
C1677       C  0.24333411  0.62431380  0.76900710     0.20600
C1678       C  0.26865730  0.62222052  0.76432275    -0.39300
C1679       C  0.27556635  0.62332335  0.73946881     0.19600
C1680       C  0.25852187  0.62618383  0.72073334     0.22200
C1681       C  0.23319049  0.62821662  0.72540869    -0.39800
C1682       C  0.22629611  0.62719739  0.75026883     0.21000
N1683       N  0.23220362  0.62477099  0.79108703    -0.33100
C1684       C  0.20790922  0.62801418  0.78639294    -0.10600
C1685       C  0.20348327  0.62952631  0.76112358    -0.29400
N1686       N  0.26984381  0.62774882  0.69880952    -0.46000
C1687       C  0.29428465  0.62604693  0.70360699    -0.05300
C1688       C  0.29858515  0.62313311  0.72876818    -0.22700
H1689       H  0.28203158  0.62039024  0.77898112     0.19100
H1690       H  0.21989210  0.63087915  0.71080806     0.17900
H1691       H  0.18601695  0.63243849  0.75197994     0.14200
H1692       H  0.31618408  0.62179295  0.73802465     0.14100
H1693       H  0.24066902  0.62336576  0.80829907     0.32200
H1694       H  0.26148581  0.63050599  0.68170689     0.35000
C1695       C  0.36871679  0.97913614  0.84361282     0.20600
C1696       C  0.37807547  0.00051173  0.83244954    -0.39300
C1697       C  0.36952564  0.02289297  0.84213133     0.19600
C1698       C  0.35294124  0.02390345  0.86147613     0.22200
C1699       C  0.34365398  0.00253380  0.87269627    -0.39800
C1700       C  0.35215830  0.98015468  0.86297938     0.21000
N1701       N  0.37250035  0.95569925  0.83658309    -0.33100
C1702       C  0.35808546  0.94168207  0.85142499    -0.10600
C1703       C  0.34528941  0.95629130  0.86828101    -0.29400
N1704       N  0.34640519  0.04730893  0.86617226    -0.46000
C1705       C  0.35883836  0.06132542  0.84964411    -0.05300
C1706       C  0.37359040  0.04674603  0.83444577    -0.22700
H1707       H  0.39045756  0.99976258  0.81684082     0.19100
H1708       H  0.33014662  0.00326825  0.88734254     0.17900
H1709       H  0.33181901  0.95035384  0.88173718     0.14200
H1710       H  0.38490036  0.05270250  0.81913861     0.14100
H1711       H  0.38333108  0.94971730  0.82185753     0.32200
H1712       H  0.33361182  0.05328445  0.87922677     0.35000
C1713       C  0.36796536  0.85338039  0.97395016     0.20600
C1714       C  0.37986420  0.84528479  0.99537509    -0.39300
C1715       C  0.36971047  0.85359068  0.01760984     0.19600
C1716       C  0.34927352  0.86879489  0.01844177     0.22200
C1717       C  0.33739544  0.87691135  0.99702809    -0.39800
C1718       C  0.34757650  0.86864334  0.97480372     0.21000
N1719       N  0.37312312  0.84694531  0.95062059    -0.33100
C1720       C  0.35589590  0.85822313  0.93654889    -0.10600
C1721       C  0.33972269  0.87200934  0.95097298    -0.29400
N1722       N  0.34215195  0.87262853  0.04180234    -0.46000
C1723       C  0.35801081  0.85956299  0.05592152    -0.05300
C1724       C  0.37560600  0.84763343  0.04151157    -0.22700
H1725       H  0.39540420  0.83283760  0.99479812     0.19100
H1726       H  0.32103943  0.88826805  0.99764169     0.17900
H1727       H  0.32377415  0.88228761  0.94491241     0.14200
H1728       H  0.38993013  0.83521809  0.04762109     0.14100
H1729       H  0.38703117  0.83504998  0.94471772     0.32200
H1730       H  0.32673107  0.88250728  0.04768451     0.35000
C1731       C  0.37591393  0.77466481  0.75442210     0.20600
C1732       C  0.37534356  0.76968307  0.72909847    -0.39300
C1733       C  0.37630152  0.74473527  0.72257881     0.19600
C1734       C  0.37771727  0.72611655  0.73992676     0.22200
C1735       C  0.37829453  0.73110332  0.76530078    -0.39800
C1736       C  0.37730047  0.75610353  0.77183625     0.21000
N1737       N  0.37459423  0.79683185  0.76530983    -0.33100
C1738       C  0.37504154  0.79241140  0.78986344    -0.10600
C1739       C  0.37675409  0.76720827  0.79466940    -0.29400
N1740       N  0.37748276  0.70391639  0.72893907    -0.46000
C1741       C  0.37583743  0.70850337  0.70444292    -0.05300
C1742       C  0.37519478  0.73374602  0.69978247    -0.22700
H1743       H  0.37391663  0.78415818  0.71547960     0.19100
H1744       H  0.37906042  0.71659612  0.77893965     0.17900
H1745       H  0.37717012  0.75822784  0.81245345     0.14200
H1746       H  0.37347159  0.74281240  0.68212100     0.14100
H1747       H  0.37306718  0.81389583  0.75656394     0.32200
H1748       H  0.37787218  0.68673438  0.73758674     0.35000
C1749       C  0.27528328  0.75932452  0.87007792     0.20600
C1750       C  0.27031590  0.73405854  0.86835518    -0.39300
C1751       C  0.24541117  0.72743322  0.86957285     0.19600
C1752       C  0.22679987  0.74462280  0.87228603     0.22200
C1753       C  0.23176087  0.76996216  0.87393546    -0.39800
C1754       C  0.25673535  0.77660434  0.87269717     0.21000
N1755       N  0.29741864  0.77030146  0.86880998    -0.33100
C1756       C  0.29298189  0.79478502  0.87046819    -0.10600
C1757       C  0.26781467  0.79945831  0.87295655    -0.29400
N1758       N  0.20463176  0.73354080  0.87228480    -0.46000
C1759       C  0.20925911  0.70915626  0.86947249    -0.05300
C1760       C  0.23447210  0.70466039  0.86780058    -0.22700
H1761       H  0.28477135  0.72056182  0.86597444     0.19100
H1762       H  0.21726091  0.78350324  0.87572469     0.17900
H1763       H  0.25883151  0.81718955  0.87429847     0.14200
H1764       H  0.24354585  0.68712312  0.86514381     0.14100
H1765       H  0.31444164  0.76169088  0.86639762     0.32200
H1766       H  0.18744515  0.74206015  0.87365478     0.35000
C1767       C  0.15145530  0.86807483  0.51753769     0.20600
C1768       C  0.15967899  0.88034309  0.49633263    -0.39300
C1769       C  0.15270194  0.86966173  0.47387641     0.19600
C1770       C  0.13868724  0.84836217  0.47269465     0.22200
C1771       C  0.13053563  0.83606530  0.49386554    -0.39800
C1772       C  0.13738504  0.84681502  0.51628639     0.21000
N1773       N  0.15674606  0.87367800  0.54104014    -0.33100
C1774       C  0.14598344  0.85583010  0.55479906    -0.10600
C1775       C  0.13357918  0.83885612  0.54001907    -0.29400
N1776       N  0.13554100  0.84124552  0.44925923    -0.46000
C1777       C  0.14777369  0.85801200  0.43538698    -0.05300
C1778       C  0.15863163  0.87611580  0.45006349    -0.22700
H1779       H  0.17112701  0.89665752  0.49725452     0.19100
H1780       H  0.12004434  0.81911749  0.49294430     0.17900
H1781       H  0.12411748  0.82226905  0.54579180     0.14200
H1782       H  0.17010933  0.89133201  0.44417421     0.14100
H1783       H  0.16774749  0.88820445  0.54726211     0.32200
H1784       H  0.12640931  0.82542879  0.44314772     0.35000
C1785       C  0.13862889  0.97948343  0.64881864     0.20600
C1786       C  0.12855532  0.00085031  0.65936819    -0.39300
C1787       C  0.13805485  0.02325262  0.65057302     0.19600
C1788       C  0.15624638  0.02423561  0.63272888     0.22200
C1789       C  0.16638451  0.00290218  0.62229420    -0.39800
C1790       C  0.15682409  0.98054145  0.63098707     0.21000
N1791       N  0.13352625  0.95597060  0.65470211    -0.33100
C1792       C  0.14865077  0.94197134  0.64057622    -0.10600
C1793       C  0.16337411  0.95667307  0.62546969    -0.29400
N1794       N  0.16277873  0.04764572  0.62811396    -0.46000
C1795       C  0.14872467  0.06175467  0.64315419    -0.05300
C1796       C  0.13301300  0.04719121  0.65743260    -0.22700
H1797       H  0.11464189  0.00008094  0.67363026     0.19100
H1798       H  0.18092074  0.00365738  0.60866795     0.17900
H1799       H  0.17764328  0.95072882  0.61288322     0.14200
H1800       H  0.12018961  0.05325614  0.67143866     0.14100
H1801       H  0.12114673  0.94986590  0.66811437     0.32200
H1802       H  0.17644351  0.05361090  0.61594342     0.35000
C1803       C  0.22732017  0.75797046  0.61985824     0.20600
C1804       C  0.23229835  0.73263807  0.62059245    -0.39300
C1805       C  0.25729960  0.72623208  0.62113246     0.19600
C1806       C  0.27589661  0.74371691  0.62100364     0.22200
C1807       C  0.27092247  0.76903057  0.62021418    -0.39800
C1808       C  0.24593715  0.77543210  0.61962018     0.21000
N1809       N  0.20512226  0.76885225  0.62024036    -0.33100
C1810       C  0.20966796  0.79341084  0.62030903    -0.10600
C1811       C  0.23490867  0.79822432  0.61977097    -0.29400
N1812       N  0.29809153  0.73292104  0.62219460    -0.46000
C1813       C  0.29359868  0.70837911  0.62303413    -0.05300
C1814       C  0.26836967  0.70347730  0.62239210    -0.22700
H1815       H  0.21778705  0.71895016  0.62104914     0.19100
H1816       H  0.28542461  0.78273488  0.62038620     0.17900
H1817       H  0.24396121  0.81599591  0.62026094     0.14200
H1818       H  0.25936239  0.68568939  0.62306908     0.14100
H1819       H  0.18797801  0.76011749  0.62104446     0.32200
H1820       H  0.31521882  0.74171459  0.62260348     0.35000
C1821       C  0.12887904  0.77670287  0.73906440     0.20600
C1822       C  0.13073879  0.77181672  0.76437289    -0.39300
C1823       C  0.12815958  0.74703257  0.77120129     0.19600
C1824       C  0.12408664  0.72853286  0.75411775     0.22200
C1825       C  0.12219140  0.73342422  0.72880916    -0.39800
C1826       C  0.12476980  0.75820997  0.72198189     0.21000
N1827       N  0.13131663  0.79861689  0.72783500    -0.33100
C1828       C  0.12882969  0.79405140  0.70340829    -0.10600
C1829       C  0.12467478  0.76904782  0.69903991    -0.29400
N1830       N  0.12328448  0.70641863  0.76518989    -0.46000
C1831       C  0.12689961  0.71084952  0.78950631    -0.05300
C1832       C  0.12988356  0.73599591  0.79398159    -0.22700
H1833       H  0.13427743  0.78620340  0.77772414     0.19100
H1834       H  0.11932877  0.71895186  0.71538967     0.17900
H1835       H  0.12229830  0.75998619  0.68143664     0.14200
H1836       H  0.13356720  0.74490422  0.81143783     0.14100
H1837       H  0.13484708  0.81556752  0.73624398     0.32200
H1838       H  0.12096983  0.68932473  0.75665612     0.35000
C1839       C  0.22911827  0.87797765  0.73676938     0.20600
C1840       C  0.23365634  0.87818896  0.76219974    -0.39300
C1841       C  0.25850392  0.87731107  0.76913053     0.19600
C1842       C  0.27739732  0.87637860  0.75203147     0.22200
C1843       C  0.27286141  0.87623397  0.72657164    -0.39800
C1844       C  0.24797992  0.87702079  0.71963123     0.21000
N1845       N  0.20708674  0.87742808  0.72556964    -0.33100
C1846       C  0.21187890  0.87591725  0.70111578    -0.10600
C1847       C  0.23721087  0.87581135  0.69665508    -0.29400
N1848       N  0.29934908  0.87498600  0.76335974    -0.46000
C1849       C  0.29439649  0.87503463  0.78784367    -0.05300
C1850       C  0.26910344  0.87646961  0.79216037    -0.22700
H1851       H  0.21890148  0.87853337  0.77560600     0.19100
H1852       H  0.28758735  0.87509610  0.71317903     0.17900
H1853       H  0.24646206  0.87425004  0.67906321     0.14200
H1854       H  0.25973585  0.87653845  0.80976027     0.14100
H1855       H  0.18983460  0.87736025  0.73410162     0.32200
H1856       H  0.31661576  0.87377843  0.75494575     0.35000
C1857       C  0.52566075  0.36910534  0.64822303     0.20600
C1858       C  0.50414695  0.37905463  0.65849577    -0.39300
C1859       C  0.48195332  0.37060971  0.64830436     0.19600
C1860       C  0.48125967  0.35359030  0.62931239     0.22200
C1861       C  0.50277624  0.34370437  0.61900694    -0.39800
C1862       C  0.52495927  0.35209319  0.62923331     0.21000
N1863       N  0.54894149  0.37296946  0.65564650    -0.33100
C1864       C  0.56315630  0.35822811  0.64135946    -0.10600
C1865       C  0.54885666  0.34498909  0.62459628    -0.29400
N1866       N  0.45794625  0.34696369  0.62431738    -0.46000
C1867       C  0.44369480  0.35966680  0.64038922    -0.05300
C1868       C  0.45799353  0.37485090  0.65544913    -0.22700
H1869       H  0.50463278  0.39177818  0.67384415     0.19100
H1870       H  0.50225780  0.32984710  0.60467806     0.17900
H1871       H  0.55503021  0.33137497  0.61140919     0.14200
H1872       H  0.45181194  0.38625157  0.67059236     0.14100
H1873       H  0.55471612  0.38432880  0.67007812     0.32200
H1874       H  0.45220390  0.33365145  0.61165305     0.35000
C1875       C  0.63739381  0.35310611  0.51924588     0.20600
C1876       C  0.62621423  0.34360294  0.49793806    -0.39300
C1877       C  0.63623403  0.35164690  0.47550714     0.19600
C1878       C  0.65585704  0.36793030  0.47443604     0.22200
C1879       C  0.66702033  0.37742437  0.49571117    -0.39800
C1880       C  0.65700224  0.36939955  0.51810654     0.21000
N1881       N  0.63233527  0.34716206  0.54274090    -0.33100
C1882       C  0.64888705  0.35972042  0.55663524    -0.10600
C1883       C  0.66446671  0.37391862  0.54191029    -0.29400
N1884       N  0.66292383  0.37159139  0.45103355    -0.46000
C1885       C  0.64785366  0.35739717  0.43705241    -0.05300
C1886       C  0.63082538  0.34479212  0.45164986    -0.22700
H1887       H  0.61129710  0.33037957  0.49877075     0.19100
H1888       H  0.68276300  0.38965732  0.49488896     0.17900
H1889       H  0.67990034  0.38512607  0.54777015     0.14200
H1890       H  0.61707455  0.33161419  0.44570234     0.14100
H1891       H  0.61905379  0.33465029  0.54887183     0.32200
H1892       H  0.67772985  0.38233812  0.44503272     0.35000
C1893       C  0.48030450  0.15257123  0.86235981     0.20600
C1894       C  0.50153213  0.16253168  0.87323226    -0.39300
C1895       C  0.52397100  0.15416129  0.86361339     0.19600
C1896       C  0.52515058  0.13713480  0.84465672     0.22200
C1897       C  0.50393258  0.12714075  0.83382099    -0.39800
C1898       C  0.48150406  0.13552848  0.84341678     0.21000
N1899       N  0.45684920  0.15892248  0.86688760    -0.33100
C1900       C  0.44304822  0.14595342  0.85060080    -0.10600
C1901       C  0.45775276  0.13096618  0.83581713    -0.29400
N1902       N  0.54858688  0.13335064  0.83778118    -0.46000
C1903       C  0.56243316  0.14817848  0.85235364    -0.05300
C1904       C  0.54774425  0.16135738  0.86880292    -0.22700
H1905       H  0.50063521  0.17638213  0.88754887     0.19100
H1906       H  0.50482015  0.11437230  0.81853060     0.17900
H1907       H  0.45195362  0.11932703  0.82069362     0.14200
H1908       H  0.55358497  0.17510238  0.88202493     0.14100
H1909       H  0.45071472  0.17206557  0.87953085     0.32200
H1910       H  0.55469398  0.12208877  0.82342514     0.35000
C1911       C  0.65555775  0.13772544  0.97451741     0.20600
C1912       C  0.66623033  0.12758677  0.99577077    -0.39300
C1913       C  0.65730768  0.13670211  0.01826146     0.19600
C1914       C  0.63916562  0.15454909  0.01944387     0.22200
C1915       C  0.62849447  0.16465507  0.99821750    -0.39800
C1916       C  0.63738063  0.15553093  0.97575495     0.21000
N1917       N  0.66193077  0.13337816  0.95098850    -0.33100
C1918       C  0.64781067  0.14863407  0.93715994    -0.10600
C1919       C  0.63212292  0.16258586  0.95196886    -0.29400
N1920       N  0.63482221  0.16110263  0.04289767    -0.46000
C1921       C  0.65034807  0.14740446  0.05681014    -0.05300
C1922       C  0.66460614  0.13186277  0.04209814    -0.22700
H1923       H  0.68086719  0.11410838  0.99485526     0.19100
H1924       H  0.61474979  0.17904189  0.99911885     0.17900
H1925       H  0.61947387  0.17683894  0.94618148     0.14200
H1926       H  0.67900906  0.11942828  0.04798224     0.14100
H1927       H  0.67574570  0.12153484  0.94480725     0.32200
H1928       H  0.62260537  0.17462612  0.04898783     0.35000
C1929       C  0.63111445  0.26089958  0.72247066     0.20600
C1930       C  0.63224723  0.23557982  0.72748634    -0.39300
C1931       C  0.63054981  0.22903640  0.75241569     0.19600
C1932       C  0.62803892  0.24638112  0.77094374     0.22200
C1933       C  0.62693193  0.27170300  0.76592956    -0.39800
C1934       C  0.62855116  0.27824184  0.74099319     0.21000
N1935       N  0.63258646  0.27186894  0.70033759    -0.33100
C1936       C  0.63097673  0.29638593  0.70480852    -0.10600
C1937       C  0.62844468  0.30107023  0.72995964    -0.29400
N1938       N  0.62745782  0.23546725  0.79314558    -0.46000
C1939       C  0.62958578  0.21098422  0.78871138    -0.05300
C1940       C  0.63148704  0.20626124  0.76351226    -0.22700
H1941       H  0.63443044  0.22198848  0.71306331     0.19100
H1942       H  0.62514452  0.28531802  0.78038500     0.17900
H1943       H  0.62698158  0.31879932  0.73896457     0.14200
H1944       H  0.63379303  0.18859018  0.75457083     0.14100
H1945       H  0.63480721  0.26323001  0.68329483     0.32200
H1946       H  0.62607762  0.24415883  0.81025048     0.35000
C1947       C  0.02506587  0.36771882  0.84363820     0.20600
C1948       C  0.00368324  0.37741480  0.83288403    -0.39300
C1949       C  0.98134810  0.36911533  0.84289829     0.19600
C1950       C  0.98037711  0.35233724  0.86206433     0.22200
C1951       C  0.00176892  0.34259647  0.87277717    -0.39800
C1952       C  0.02411808  0.35097477  0.86283309     0.21000
N1953       N  0.04847033  0.37178426  0.83668732    -0.33100
C1954       C  0.06255527  0.35742249  0.85145817    -0.10600
C1955       C  0.04801499  0.34425444  0.86809466    -0.29400
N1956       N  0.95692536  0.34634708  0.86731794    -0.46000
C1957       C  0.94286192  0.35936391  0.85133811    -0.05300
C1958       C  0.95744886  0.37389757  0.83592122    -0.22700
H1959       H  0.00438020  0.39009771  0.81752699     0.19100
H1960       H  0.00105559  0.32906416  0.88738756     0.17900
H1961       H  0.05404086  0.33083517  0.88152644     0.14200
H1962       H  0.95142480  0.38553623  0.82091478     0.14100
H1963       H  0.05441228  0.38294951  0.82219765     0.32200
H1964       H  0.95092422  0.33354439  0.88035370     0.35000
C1965       C  0.86885981  0.35486859  0.97481627     0.20600
C1966       C  0.87912183  0.34460129  0.99616357    -0.39300
C1967       C  0.86998176  0.35376685  0.01850388     0.19600
C1968       C  0.85198461  0.37177381  0.01951172     0.22200
C1969       C  0.84173594  0.38205846  0.99814851    -0.39800
C1970       C  0.85086516  0.37287949  0.97579330     0.21000
N1971       N  0.87319118  0.34809029  0.95143239    -0.33100
C1972       C  0.85771270  0.36173249  0.93740700    -0.10600
C1973       C  0.84361342  0.37755021  0.95193410    -0.29400
N1974       N  0.84519997  0.37606475  0.04292507    -0.46000
C1975       C  0.85887497  0.36057017  0.05690544    -0.05300
C1976       C  0.87469434  0.34652100  0.04232947    -0.22700
H1977       H  0.89265245  0.33000087  0.99543292     0.19100
H1978       H  0.82715514  0.39560694  0.99887882     0.17900
H1979       H  0.82918157  0.38989854  0.94594552     0.14200
H1980       H  0.88706196  0.33208489  0.04827199     0.14100
H1981       H  0.88515507  0.33426863  0.94549025     0.32200
H1982       H  0.83140111  0.38802385  0.04891349     0.35000
C1983       C  0.75986504  0.38091295  0.77117497     0.20600
C1984       C  0.73452985  0.38160717  0.76623651    -0.39300
C1985       C  0.72805786  0.38147787  0.74125589     0.19600
C1986       C  0.74548043  0.38077665  0.72263491     0.22200
C1987       C  0.77080242  0.38008683  0.72757168    -0.39800
C1988       C  0.77727113  0.38015822  0.75254284     0.21000
N1989       N  0.77074957  0.37997752  0.79335382    -0.33100
C1990       C  0.79524417  0.37851000  0.78877241    -0.10600
C1991       C  0.80003263  0.37866847  0.76353838    -0.29400
N1992       N  0.73458016  0.37985955  0.70047490    -0.46000
C1993       C  0.71004691  0.37984074  0.70504226    -0.05300
C1994       C  0.70524566  0.38093925  0.73025337    -0.22700
H1995       H  0.72086892  0.38177784  0.78075949     0.19100
H1996       H  0.78443707  0.37912145  0.71305597     0.17900
H1997       H  0.81774284  0.37734330  0.75447697     0.14200
H1998       H  0.68748112  0.38068700  0.73930739     0.14100
H1999       H  0.76203254  0.37985114  0.81050981     0.32200
H2000       H  0.74329028  0.37866130  0.68335562     0.35000
C2001       C  0.75903472  0.27946734  0.87212863     0.20600
C2002       C  0.73373985  0.27429502  0.87096088    -0.39300
C2003       C  0.72736899  0.24927615  0.87182975     0.19600
C2004       C  0.74484820  0.23082651  0.87366075     0.22200
C2005       C  0.77012857  0.23600360  0.87490550    -0.39800
C2006       C  0.77649715  0.26101690  0.87407453     0.21000
N2007       N  0.76989862  0.30167387  0.87081244    -0.33100
C2008       C  0.79445322  0.29731056  0.87190494    -0.10600
C2009       C  0.79927548  0.27217383  0.87401709    -0.29400
N2010       N  0.73411752  0.20852762  0.87320191    -0.46000
C2011       C  0.70963172  0.21282278  0.87105175    -0.05300
C2012       C  0.70469297  0.23801741  0.87026378    -0.22700
H2013       H  0.72006310  0.28865824  0.86913124     0.19100
H2014       H  0.78384586  0.22160699  0.87602967     0.17900
H2015       H  0.81706541  0.26324346  0.87480733     0.14200
H2016       H  0.68696378  0.24686307  0.86818691     0.14100
H2017       H  0.76116533  0.31869317  0.86882010     0.32200
H2018       H  0.74294009  0.19145291  0.87387095     0.35000
C2019       C  0.86918227  0.15684996  0.51935389     0.20600
C2020       C  0.87981572  0.16671016  0.49790438    -0.39300
C2021       C  0.87019879  0.15792592  0.47553621     0.19600
C2022       C  0.85142206  0.14066798  0.47464027     0.22200
C2023       C  0.84079600  0.13083922  0.49605451    -0.39800
C2024       C  0.85043863  0.13956552  0.51838240     0.21000
N2025       N  0.87410991  0.16309009  0.54283619    -0.33100
C2026       C  0.85834715  0.14970351  0.55690512    -0.10600
C2027       C  0.84340188  0.13472419  0.54227021    -0.29400
N2028       N  0.84465302  0.13626404  0.45124520    -0.46000
C2029       C  0.85909640  0.15091397  0.43706473    -0.05300
C2030       C  0.87537792  0.16461406  0.45156758    -0.22700
H2031       H  0.89410680  0.18061690  0.49858140     0.19100
H2032       H  0.82574874  0.11775250  0.49538354     0.17900
H2033       H  0.82865834  0.12268860  0.54825591     0.14200
H2034       H  0.88854642  0.17830024  0.44546031     0.14100
H2035       H  0.88681946  0.17623758  0.54885603     0.32200
H2036       H  0.83047968  0.12463729  0.44535528     0.35000
C2037       C  0.98121158  0.13670312  0.64939998     0.20600
C2038       C  0.00269307  0.12725544  0.66020904    -0.39300
C2039       C  0.02495197  0.13508440  0.64962473     0.19600
C2040       C  0.02575931  0.15112183  0.62982354     0.22200
C2041       C  0.00428616  0.16049747  0.61898590    -0.39800
C2042       C  0.98203813  0.15267601  0.62955399     0.21000
N2043       N  0.95787739  0.13341320  0.65703065    -0.33100
C2044       C  0.94376357  0.14752106  0.64202997    -0.10600
C2045       C  0.95818766  0.15967553  0.62456398    -0.29400
N2046       N  0.04913260  0.15728525  0.62443426    -0.46000
C2047       C  0.06331988  0.14519363  0.64100320    -0.05300
C2048       C  0.04889888  0.13095812  0.65685599    -0.22700
H2049       H  0.00214115  0.11533297  0.67617046     0.19100
H2050       H  0.00487700  0.17358121  0.60396699     0.17900
H2051       H  0.95214072  0.17270545  0.61076566     0.14200
H2052       H  0.05502376  0.12018955  0.67245882     0.14100
H2053       H  0.95202783  0.12297862  0.67210468     0.32200
H2054       H  0.05497645  0.16982659  0.61106196     0.35000
C2055       C  0.77876371  0.24806359  0.62265793     0.20600
C2056       C  0.77381887  0.27343491  0.62219652    -0.39300
C2057       C  0.74881005  0.27994871  0.62215342     0.19600
C2058       C  0.73017360  0.26251757  0.62251785     0.22200
C2059       C  0.73510903  0.23716465  0.62292523    -0.39800
C2060       C  0.76009681  0.23066435  0.62297275     0.21000
N2061       N  0.80095202  0.23712097  0.62347520    -0.33100
C2062       C  0.79635700  0.21257430  0.62429349    -0.10600
C2063       C  0.77107984  0.20785281  0.62396269    -0.29400
N2064       N  0.70799140  0.27342279  0.62322453    -0.46000
C2065       C  0.71249581  0.29799735  0.62340857    -0.05300
C2066       C  0.73775828  0.30278731  0.62265608    -0.22700
H2067       H  0.78836036  0.28709589  0.62224084     0.19100
H2068       H  0.72056774  0.22351226  0.62350008     0.17900
H2069       H  0.76197017  0.19012206  0.62476862     0.14200
H2070       H  0.74681148  0.32055952  0.62301138     0.14100
H2071       H  0.81812857  0.24581750  0.62376005     0.32200
H2072       H  0.69085873  0.26466900  0.62404841     0.35000
C2073       C  0.75968546  0.12904111  0.72223623     0.20600
C2074       C  0.73429986  0.12919320  0.72715747    -0.39300
C2075       C  0.72775089  0.12857088  0.75215273     0.19600
C2076       C  0.74515913  0.12782227  0.77076821     0.22200
C2077       C  0.77049788  0.12757274  0.76584066    -0.39800
C2078       C  0.77703944  0.12823890  0.74089279     0.21000
N2079       N  0.77072169  0.13035220  0.70011534    -0.33100
C2080       C  0.79526391  0.13038678  0.70477536    -0.10600
C2081       C  0.79990253  0.12905448  0.72999525    -0.29400
N2082       N  0.73429853  0.12844527  0.79297372    -0.46000
C2083       C  0.70978631  0.12968391  0.78851030    -0.05300
C2084       C  0.70495479  0.12964573  0.76325396    -0.22700
H2085       H  0.72068400  0.13018557  0.71263724     0.19100
H2086       H  0.78412680  0.12735036  0.78038077     0.17900
H2087       H  0.81761702  0.12910827  0.73913412     0.14200
H2088       H  0.68721677  0.13097031  0.75426005     0.14100
H2089       H  0.76210021  0.13150296  0.68295753     0.32200
H2090       H  0.74305901  0.12859993  0.81009863     0.35000
C2091       C  0.87800344  0.27692288  0.75631577     0.20600
C2092       C  0.87959616  0.27197861  0.73104424    -0.39300
C2093       C  0.87879564  0.24705975  0.72445895     0.19600
C2094       C  0.87654724  0.22843140  0.74171191     0.22200
C2095       C  0.87492110  0.23337193  0.76705649    -0.39800
C2096       C  0.87577412  0.25836404  0.77365622     0.21000
N2097       N  0.87781446  0.29914165  0.76713756    -0.33100
C2098       C  0.87543410  0.29478373  0.79157505    -0.10600
C2099       C  0.87416477  0.26954514  0.79640480    -0.29400
N2100       N  0.87559886  0.20633442  0.73057893    -0.46000
C2101       C  0.87719707  0.21100729  0.70608226    -0.05300
C2102       C  0.87926538  0.23619424  0.70157748    -0.22700
H2103       H  0.88109404  0.28649687  0.71747541     0.19100
H2104       H  0.87291779  0.21887413  0.78058720     0.17900
H2105       H  0.87193934  0.26063593  0.81409677     0.14200
H2106       H  0.88042711  0.24534662  0.68391183     0.14100
H2107       H  0.87892373  0.31623309  0.75839069     0.32200
H2108       H  0.87350976  0.18920356  0.73907966     0.35000
C2109       C  0.52432123  0.63820986  0.64637306     0.20600
C2110       C  0.50306145  0.62798232  0.65686920    -0.39300
C2111       C  0.48068478  0.63695803  0.64776894     0.19600
C2112       C  0.47951973  0.65480784  0.62961498     0.22200
C2113       C  0.50082045  0.66507872  0.61910276    -0.39800
C2114       C  0.52325059  0.65606039  0.62820477     0.21000
N2115       N  0.54771600  0.63394361  0.65305590    -0.33100
C2116       C  0.56169362  0.64933027  0.63923390    -0.10600
C2117       C  0.54711243  0.66327817  0.62332962    -0.29400
N2118       N  0.45601599  0.66115016  0.62518820    -0.46000
C2119       C  0.44218158  0.64726345  0.64069966    -0.05300
C2120       C  0.45693152  0.63189144  0.65498870    -0.22700
H2121       H  0.50388706  0.61450513  0.67152377     0.19100
H2122       H  0.49999405  0.67949983  0.60537546     0.17900
H2123       H  0.55306199  0.67764106  0.61084641     0.14200
H2124       H  0.45111477  0.61940721  0.66940341     0.14100
H2125       H  0.55369928  0.62210725  0.66697491     0.32200
H2126       H  0.44984100  0.67466536  0.61298735     0.35000
C2127       C  0.63659298  0.52695596  0.64917765     0.20600
C2128       C  0.62759278  0.50548817  0.66043863    -0.39300
C2129       C  0.63568878  0.48320024  0.65018683     0.19600
C2130       C  0.65160681  0.48233876  0.63028376     0.22200
C2131       C  0.66058817  0.50382394  0.61899970    -0.39800
C2132       C  0.65246170  0.52612978  0.62923501     0.21000
N2133       N  0.63281166  0.55033356  0.65637311    -0.33100
C2134       C  0.64649263  0.56454065  0.64102826    -0.10600
C2135       C  0.65890417  0.55008979  0.62374917    -0.29400
N2136       N  0.65788347  0.45894239  0.62512905    -0.46000
C2137       C  0.64593155  0.44480331  0.64191639    -0.05300
C2138       C  0.63174331  0.45929342  0.65772034    -0.22700
H2139       H  0.61570065  0.50609452  0.67643105     0.19100
H2140       H  0.67353228  0.50321978  0.60384809     0.17900
H2141       H  0.67171792  0.55621436  0.60974957     0.14200
H2142       H  0.62101192  0.45324566  0.67340315     0.14100
H2143       H  0.62232794  0.55618481  0.67140789     0.32200
H2144       H  0.67029828  0.45305149  0.61166740     0.35000
C2145       C  0.65463845  0.63779765  0.51920096     0.20600
C2146       C  0.66596286  0.62824843  0.49806912    -0.39300
C2147       C  0.65621271  0.63626787  0.47560223     0.19600
C2148       C  0.63664651  0.65253799  0.47428465     0.22200
C2149       C  0.62525024  0.66203243  0.49543388    -0.39800
C2150       C  0.63505644  0.65405606  0.51792279     0.21000
N2151       N  0.66171846  0.63449590  0.54262542    -0.33100
C2152       C  0.64670620  0.64892118  0.55635961    -0.10600
C2153       C  0.62967679  0.66126029  0.54163819    -0.29400
N2154       N  0.63207427  0.65873843  0.45080832    -0.46000
C2155       C  0.64892603  0.64641335  0.43712651    -0.05300
C2156       C  0.66417122  0.63204266  0.45192059    -0.22700
H2157       H  0.68175728  0.61615242  0.49905134     0.19100
H2158       H  0.61046611  0.67534378  0.49444432     0.17900
H2159       H  0.61603822  0.67459547  0.54739519     0.14200
H2160       H  0.67976325  0.62102191  0.44622660     0.14100
H2161       H  0.67655609  0.62393325  0.54877135     0.32200
H2162       H  0.61897965  0.67136072  0.44458423     0.35000
C2163       C  0.86814332  0.52682392  0.84541682     0.20600
C2164       C  0.87926645  0.50541776  0.83609202    -0.39300
C2165       C  0.86962360  0.48305575  0.84482004     0.19600
C2166       C  0.85043703  0.48214535  0.86159837     0.22200
C2167       C  0.83932326  0.50351739  0.87088730    -0.39800
C2168       C  0.84892371  0.52583418  0.86214830     0.21000
N2169       N  0.87285976  0.55024920  0.83891147    -0.33100
C2170       C  0.85645474  0.56423456  0.85153489    -0.10600
C2171       C  0.84132230  0.54964730  0.86632683    -0.29400
N2172       N  0.84357894  0.45876082  0.86583052    -0.46000
C2173       C  0.85830261  0.44461100  0.85147796    -0.05300
C2174       C  0.87493259  0.45910374  0.83821770    -0.22700
H2175       H  0.89383239  0.50611181  0.82249332     0.19100
H2176       H  0.82387040  0.50280716  0.88346912     0.17900
H2177       H  0.82612169  0.55558050  0.87777615     0.14200
H2178       H  0.88829151  0.45301861  0.82473244     0.14100
H2179       H  0.88583144  0.55626090  0.82602358     0.32200
H2180       H  0.82902573  0.45287231  0.87696994     0.35000
C2181       C  0.97896335  0.63829353  0.84367567     0.20600
C2182       C  0.00016207  0.62823367  0.83295495    -0.39300
C2183       C  0.02256282  0.63653027  0.84270770     0.19600
C2184       C  0.02375126  0.65365672  0.86157926     0.22200
C2185       C  0.00253645  0.66379197  0.87223899    -0.39800
C2186       C  0.98011958  0.65539475  0.86257252     0.21000
N2187       N  0.95554782  0.63427872  0.83691305    -0.33100
C2188       C  0.94169780  0.64902671  0.85150429    -0.10600
C2189       C  0.95634407  0.66240603  0.86784771    -0.29400
N2190       N  0.04723764  0.65956048  0.86658184    -0.46000
C2191       C  0.06107587  0.64614137  0.85073654    -0.05300
C2192       C  0.04634591  0.63143307  0.83565337    -0.22700
H2193       H  0.99928179  0.61528827  0.81781054     0.19100
H2194       H  0.00343267  0.67759049  0.88660736     0.17900
H2195       H  0.95047044  0.67612802  0.88106364     0.14200
H2196       H  0.05219853  0.61953211  0.82076554     0.14100
H2197       H  0.94945109  0.62289467  0.82263589     0.32200
H2198       H  0.05340885  0.67259812  0.87932870     0.35000
C2199       C  0.86728780  0.65716353  0.97319231     0.20600
C2200       C  0.87817410  0.66704973  0.99447461    -0.39300
C2201       C  0.86911920  0.65796092  0.01691126     0.19600
C2202       C  0.85059022  0.64044487  0.01800661     0.22200
C2203       C  0.83965105  0.63064503  0.99675094    -0.39800
C2204       C  0.84876801  0.63964414  0.97434594     0.21000
N2205       N  0.87184164  0.66350241  0.94971173    -0.33100
C2206       C  0.85605217  0.64996959  0.93583743    -0.10600
C2207       C  0.84144577  0.63478301  0.95055931    -0.29400
N2208       N  0.84437438  0.63574136  0.04146288    -0.46000
C2209       C  0.85893229  0.65044235  0.05546786    -0.05300
C2210       C  0.87472435  0.66450243  0.04080848    -0.22700
H2211       H  0.89229550  0.68112058  0.99363046     0.19100
H2212       H  0.82480908  0.61733617  0.99760777     0.17900
H2213       H  0.82681230  0.62254562  0.94470864     0.14200
H2214       H  0.88776557  0.67837358  0.04677819     0.14100
H2215       H  0.88436624  0.67677462  0.94357232     0.32200
H2216       H  0.83042419  0.62393197  0.04751918     0.35000
C2217       C  0.75890495  0.63054691  0.77019270     0.20600
C2218       C  0.73350092  0.63025213  0.76556974    -0.39300
C2219       C  0.72672416  0.63074031  0.74068532     0.19600
C2220       C  0.74394740  0.63148709  0.72188372     0.22200
C2221       C  0.76934404  0.63186209  0.72650728    -0.39800
C2222       C  0.77612048  0.63132743  0.75138625     0.21000
N2223       N  0.77005428  0.63063427  0.79223697    -0.33100
C2224       C  0.79453539  0.63147835  0.78742868    -0.10600
C2225       C  0.79906134  0.63190497  0.76214823    -0.29400
N2226       N  0.73280252  0.63223045  0.69985867    -0.46000
C2227       C  0.70831402  0.63202885  0.70467045    -0.05300
C2228       C  0.70377195  0.63108704  0.72993309    -0.22700
H2229       H  0.72002338  0.62985738  0.78025911     0.19100
H2230       H  0.78281503  0.63266531  0.71182804     0.17900
H2231       H  0.81671314  0.63293512  0.75292817     0.14200
H2232       H  0.68609636  0.63101234  0.73916167     0.14100
H2233       H  0.76151852  0.63048178  0.80948614     0.32200
H2234       H  0.74133688  0.63318794  0.68263476     0.35000
C2235       C  0.52458666  0.85187943  0.86052144     0.20600
C2236       C  0.50338775  0.84184760  0.87144416    -0.39300
C2237       C  0.48086757  0.84987924  0.86170395     0.19600
C2238       C  0.47959361  0.86660234  0.84252206     0.22200
C2239       C  0.50080376  0.87656614  0.83152580    -0.39800
C2240       C  0.52333062  0.86857171  0.84130843     0.21000
N2241       N  0.54811613  0.84630861  0.86567411    -0.33100
C2242       C  0.56199944  0.85943794  0.84957574    -0.10600
C2243       C  0.54718345  0.87366520  0.83414153    -0.29400
N2244       N  0.45606589  0.87047749  0.83593895    -0.46000
C2245       C  0.44221748  0.85604343  0.85093627    -0.05300
C2246       C  0.45705935  0.84295949  0.86732223    -0.22700
H2247       H  0.50437086  0.82840739  0.88612130     0.19100
H2248       H  0.49983743  0.88924551  0.81618441     0.17900
H2249       H  0.55302536  0.88534345  0.81907616     0.14200
H2250       H  0.45126884  0.82958855  0.88092852     0.14100
H2251       H  0.55430464  0.83367545  0.87877615     0.32200
H2252       H  0.44986590  0.88167873  0.82159650     0.35000
C2253       C  0.65453009  0.98190394  0.86341802     0.20600
C2254       C  0.66560985  0.00331677  0.87277440    -0.39300
C2255       C  0.65601401  0.02560639  0.86400197     0.19600
C2256       C  0.63687129  0.02648653  0.84718586     0.22200
C2257       C  0.62578835  0.00508479  0.83785259    -0.39800
C2258       C  0.63537202  0.98280249  0.84662000     0.21000
N2259       N  0.66148354  0.95852051  0.86741306    -0.33100
C2260       C  0.64681776  0.94445542  0.85286510    -0.10600
C2261       C  0.63012066  0.95893528  0.83981523    -0.29400
N2262       N  0.63212454  0.04983363  0.84060082    -0.46000
C2263       C  0.64840478  0.06392992  0.85325635    -0.05300
C2264       C  0.66353179  0.04948340  0.86815558    -0.22700
H2265       H  0.68104652  0.00266027  0.88536593     0.19100
H2266       H  0.61129917  0.00572771  0.82418354     0.17900
H2267       H  0.61686684  0.95291828  0.82618455     0.14200
H2268       H  0.67866162  0.05554971  0.87964750     0.14100
H2269       H  0.67609786  0.95260866  0.87842032     0.32200
H2270       H  0.61919353  0.05572573  0.82765236     0.35000
C2271       C  0.63598774  0.85169328  0.01940011     0.20600
C2272       C  0.62635661  0.84108953  0.99785415    -0.39300
C2273       C  0.63462554  0.85137243  0.97561456     0.19600
C2274       C  0.65124794  0.87072043  0.97487854     0.22200
C2275       C  0.66082200  0.88136473  0.99642994    -0.39800
C2276       C  0.65254678  0.87109247  0.01866927     0.21000
N2277       N  0.63228947  0.84422528  0.04272311    -0.33100
C2278       C  0.64669271  0.85888644  0.05696855    -0.10600
C2279       C  0.65948521  0.87597420  0.04260521    -0.29400
N2280       N  0.65764686  0.87588589  0.95150704    -0.46000
C2281       C  0.64511932  0.85962499  0.93723452    -0.05300
C2282       C  0.63037859  0.84419996  0.95163179    -0.22700
H2283       H  0.61394582  0.82547430  0.99835194     0.19100
H2284       H  0.67434391  0.89602637  0.99590805     0.17900
H2285       H  0.67288381  0.88942131  0.04874847     0.14200
H2286       H  0.61914062  0.82890621  0.94547148     0.14100
H2287       H  0.62137071  0.82945388  0.04849051     0.32200
H2288       H  0.67058455  0.88891600  0.94571985     0.35000
C2289       C  0.62805588  0.77911482  0.75336089     0.20600
C2290       C  0.62763529  0.77417850  0.72803022    -0.39300
C2291       C  0.62689250  0.74921847  0.72152565     0.19600
C2292       C  0.62660501  0.73056692  0.73890254     0.22200
C2293       C  0.62700346  0.73550280  0.76426934    -0.39800
C2294       C  0.62771423  0.76049927  0.77077910     0.21000
N2295       N  0.62931229  0.80129378  0.76423473    -0.33100
C2296       C  0.62973562  0.79678941  0.78876634    -0.10600
C2297       C  0.62873430  0.77155748  0.79358276    -0.29400
N2298       N  0.62677065  0.70838972  0.72791200    -0.46000
C2299       C  0.62727403  0.71300863  0.70337941    -0.05300
C2300       C  0.62725223  0.73825593  0.69869289    -0.22700
H2301       H  0.62817789  0.78869553  0.71438818     0.19100
H2302       H  0.62705333  0.72097045  0.77790616     0.17900
H2303       H  0.62904782  0.76254026  0.81135282     0.14200
H2304       H  0.62809684  0.74734719  0.68097708     0.14100
H2305       H  0.63003810  0.81841938  0.75549668     0.32200
H2306       H  0.62715657  0.69120975  0.73656349     0.35000
C2307       C  0.74430980  0.77865569  0.87000936     0.20600
C2308       C  0.76965425  0.77380476  0.86987457    -0.39300
C2309       C  0.77616291  0.74886695  0.86901264     0.19600
C2310       C  0.75876668  0.73020188  0.86820786     0.22200
C2311       C  0.73341385  0.73505887  0.86817962    -0.39800
C2312       C  0.72690434  0.75999915  0.86918481     0.21000
N2313       N  0.73339178  0.80080159  0.87056656    -0.33100
C2314       C  0.70886293  0.79620051  0.87006544    -0.10600
C2315       C  0.70408272  0.77096506  0.86921586    -0.29400
N2316       N  0.76971441  0.70806993  0.86741782    -0.46000
C2317       C  0.79424729  0.71270427  0.86773575    -0.05300
C2318       C  0.79899552  0.73793676  0.86869090    -0.22700
H2319       H  0.78328812  0.78836424  0.87041113     0.19100
H2320       H  0.71977985  0.72050779  0.86744039     0.17900
H2321       H  0.68632886  0.76191065  0.86827001     0.14200
H2322       H  0.81675016  0.74703400  0.86895094     0.14100
H2323       H  0.74209610  0.81797975  0.87083789     0.32200
H2324       H  0.76103700  0.69089796  0.86655067     0.35000
C2325       C  0.85285107  0.87092598  0.51856280     0.20600
C2326       C  0.84371671  0.88204795  0.49713860    -0.39300
C2327       C  0.85213134  0.87199246  0.47490373     0.19600
C2328       C  0.86840600  0.85239398  0.47410834     0.22200
C2329       C  0.87751419  0.84127769  0.49550178    -0.39800
C2330       C  0.86911227  0.85132275  0.51770551     0.21000
N2331       N  0.84650864  0.87600646  0.54192004    -0.33100
C2332       C  0.85876452  0.85944375  0.55596673    -0.10600
C2333       C  0.87316346  0.84384762  0.54152969    -0.29400
N2334       N  0.87233577  0.84519619  0.45081524    -0.46000
C2335       C  0.85829637  0.86016226  0.43668239    -0.05300
C2336       C  0.84555429  0.87725215  0.45100983    -0.22700
H2337       H  0.83047571  0.89691643  0.49773660     0.19100
H2338       H  0.88969085  0.82552426  0.49489758     0.17900
H2339       H  0.88422117  0.82842379  0.54757650     0.14200
H2340       H  0.83237731  0.89086534  0.44486688     0.14100
H2341       H  0.83392968  0.88928509  0.54784754     0.32200
H2342       H  0.88304224  0.83032163  0.44499643     0.35000
C2343       C  0.98051992  0.86918529  0.64694368     0.20600
C2344       C  0.00216686  0.87868141  0.65743563    -0.39300
C2345       C  0.02427552  0.86914787  0.64807193     0.19600
C2346       C  0.02479557  0.85149332  0.62967440     0.22200
C2347       C  0.00315042  0.84203559  0.61914614    -0.39800
C2348       C  0.98104579  0.85158082  0.62849408     0.21000
N2349       N  0.95722740  0.87384379  0.65390172    -0.33100
C2350       C  0.94283237  0.85894877  0.63991946    -0.10600
C2351       C  0.95702457  0.84499393  0.62366375    -0.29400
N2352       N  0.04804692  0.84436083  0.62506803    -0.46000
C2353       C  0.06244844  0.85749344  0.64071716    -0.05300
C2354       C  0.04826822  0.87325487  0.65525297    -0.22700
H2355       H  0.00181021  0.89194615  0.67231985     0.19100
H2356       H  0.00347866  0.82775122  0.60523703     0.17900
H2357       H  0.95070943  0.83093169  0.61100386     0.14200
H2358       H  0.05458036  0.88533541  0.66981329     0.14100
H2359       H  0.95157152  0.88556105  0.66807935     0.32200
H2360       H  0.05367697  0.83077625  0.61266042     0.35000
C2361       C  0.85369044  0.98209516  0.63020166     0.20600
C2362       C  0.84284656  0.00342932  0.62059486    -0.39300
C2363       C  0.85188828  0.02573739  0.62989790     0.19600
C2364       C  0.87038584  0.02674410  0.64741112     0.22200
C2365       C  0.88127642  0.00537566  0.65703269    -0.39800
C2366       C  0.87216059  0.98301671  0.64775937     0.21000
N2367       N  0.84687766  0.95874236  0.62580824    -0.33100
C2368       C  0.86086194  0.94463294  0.64085894    -0.10600
C2369       C  0.87708356  0.95908923  0.65466375    -0.29400
N2370       N  0.87457167  0.05013139  0.65435692    -0.46000
C2371       C  0.85853435  0.06406554  0.64125464    -0.05300
C2372       C  0.84417458  0.04949982  0.62569898    -0.22700
H2373       H  0.82787768  0.00268455  0.60745473     0.19100
H2374       H  0.89518056  0.00609106  0.67129802     0.17900
H2375       H  0.88969211  0.95303186  0.66885181     0.14200
H2376       H  0.82939459  0.05539921  0.61371323     0.14100
H2377       H  0.83266950  0.95287844  0.61423073     0.32200
H2378       H  0.88693654  0.05613865  0.66782549     0.35000
C2379       C  0.77642085  0.76256275  0.62025141     0.20600
C2380       C  0.77150213  0.73720899  0.62108123    -0.39300
C2381       C  0.74653051  0.73061491  0.62113848     0.19600
C2382       C  0.72787646  0.74794561  0.62035758     0.22200
C2383       C  0.73280206  0.77332499  0.61944221    -0.39800
C2384       C  0.75779928  0.77993225  0.61945741     0.21000
N2385       N  0.79857130  0.77353481  0.62126644    -0.33100
C2386       C  0.79407035  0.79808240  0.62128023    -0.10600
C2387       C  0.76884183  0.80281627  0.61997779    -0.29400
N2388       N  0.70570173  0.73694782  0.62134262    -0.46000
C2389       C  0.71027667  0.71244158  0.62277854    -0.05300
C2390       C  0.73554592  0.70778434  0.62266610    -0.22700
H2391       H  0.78604572  0.72363799  0.62209833     0.19100
H2392       H  0.71825219  0.78692483  0.61923015     0.17900
H2393       H  0.75979592  0.82056333  0.62021197     0.14200
H2394       H  0.74464010  0.69010489  0.62391426     0.14100
H2395       H  0.81567181  0.76483589  0.62257321     0.32200
H2396       H  0.68852944  0.74560069  0.62135743     0.35000
C2397       C  0.87805600  0.76136573  0.72156071     0.20600
C2398       C  0.88022721  0.73611961  0.72657749    -0.39300
C2399       C  0.87864345  0.72955801  0.75150306     0.19600
C2400       C  0.87514909  0.74682211  0.76995768     0.22200
C2401       C  0.87293392  0.77201359  0.76494052    -0.39800
C2402       C  0.87458626  0.77856935  0.74007136     0.21000
N2403       N  0.87846694  0.77234460  0.69940070    -0.33100
C2404       C  0.87529622  0.79668997  0.70393207    -0.10600
C2405       C  0.87285407  0.80127481  0.72906977    -0.29400
N2406       N  0.87367885  0.73588578  0.79204961    -0.46000
C2407       C  0.87611623  0.71146030  0.78764022    -0.05300
C2408       C  0.87931137  0.70676806  0.76257510    -0.22700
H2409       H  0.88271287  0.72258642  0.71214762     0.19100
H2410       H  0.86997587  0.78549830  0.77932637     0.17900
H2411       H  0.86980967  0.81882014  0.73803532     0.14200
H2412       H  0.88131730  0.68905743  0.75364131     0.14100
H2413       H  0.88053695  0.76380081  0.68228054     0.32200
H2414       H  0.87064554  0.74446711  0.80900725     0.35000
C2415       C  0.77778782  0.87815064  0.73942040     0.20600
C2416       C  0.77309512  0.87627780  0.76479587    -0.39300
C2417       C  0.74823656  0.87765223  0.77177312     0.19600
C2418       C  0.72951503  0.88060519  0.75474161     0.22200
C2419       C  0.73420700  0.88244162  0.72936571    -0.39800
C2420       C  0.75906166  0.88109275  0.72239191     0.21000
N2421       N  0.79975237  0.87681534  0.72808664    -0.33100
C2422       C  0.79502774  0.87880554  0.70363914    -0.10600
C2423       C  0.76981947  0.88154758  0.69936314    -0.29400
N2424       N  0.70745130  0.88080503  0.76596738    -0.46000
C2425       C  0.71208249  0.87798443  0.79035057    -0.05300
C2426       C  0.73735860  0.87598826  0.79469763    -0.22700
H2427       H  0.78770688  0.87371330  0.77809954     0.19100
H2428       H  0.71955633  0.88449114  0.71601521     0.17900
H2429       H  0.76058768  0.88317293  0.68177648     0.14200
H2430       H  0.74648966  0.87324577  0.81219635     0.14100
H2431       H  0.81687277  0.87420460  0.73645437     0.32200
H2432       H  0.69025745  0.88245106  0.75750681     0.35000
loop_ 
_geom_bond_atom_site_label_1 
_geom_bond_atom_site_label_2 
_geom_bond_distance 
_geom_bond_site_symmetry_2 
_ccdc_geom_bond_type 
Fe1          O17   2.066       .  S
Fe1           O7   2.065       .  S
Fe1          O14   2.070       .  S
Fe1           O6   2.069       .  S
Fe1          O12   1.982       .  S
Fe2           O5   2.070       .  S
Fe2           O9   2.061       .  S
Fe2          O13   2.066       .  S
Fe2          O18   2.054       .  S
Fe2          O12   1.981       .  S
Fe3          O21   2.062       .  S
Fe3           O8   2.064       .  S
Fe3          O15   2.056       .  S
Fe3           O4   2.060       .  S
Fe3          O12   1.982       .  S
O4           C11   1.268       .  A
O5           C19   1.269       .  A
O6           C11   1.269       .  A
O7           C10   1.268       .  A
O8           C20   1.266       .  A
O9           C22   1.267       .  A
C10          O15   1.267       .  A
C10        C2332   1.468       .  S
C11        C2386   1.472       .  S
O13          C16   1.268       .  A
O14          C16   1.269       .  A
C16        C2422   1.475       .  S
O17          C22   1.269       .  A
O18          C20   1.266       .  A
C19          O21   1.269       .  A
C19        C2350   1.472       .  S
C20        C2404   1.468       .  S
C22        C2368   1.471       .  S
Fe23         O39   2.065       .  S
Fe23         O29   2.061       .  S
Fe23         O36   2.056       .  S
Fe23         O28   2.061       .  S
Fe23         O34   1.980       .  S
Fe24         O27   2.066       .  S
Fe24         O31   2.074       .  S
Fe24         O35   2.063       .  S
Fe24         O40   2.070       .  S
Fe24         O34   1.983       .  S
Fe25         O43   2.065       .  S
Fe25         O30   2.069       .  S
Fe25         O37   2.071       .  S
Fe25         O26   2.064       .  S
Fe25         O34   1.982       .  S
O26          C33   1.268       .  A
O27          C41   1.269       .  A
O28          C33   1.267       .  A
O29          C32   1.268       .  A
O30          C42   1.268       .  A
O31          C44   1.270       .  A
C32          O37   1.270       .  A
C32        C2242   1.473       .  S
C33        C2296   1.470       .  S
O35          C38   1.267       .  A
O36          C38   1.266       .  A
C38        C2314   1.467       .  S
O39          C44   1.268       .  A
O40          C42   1.268       .  A
C41          O43   1.269       .  A
C41        C2260   1.471       .  S
C42        C2425   1.477       .  S
C44        C2281   1.476       .  S
Fe45         O61   2.057       .  S
Fe45         O51   2.065       .  S
Fe45         O58   2.058       .  S
Fe45         O50   2.061       .  S
Fe45         O56   1.983       .  S
Fe46         O49   2.065       .  S
Fe46         O53   2.061       .  S
Fe46         O57   2.061       .  S
Fe46         O62   2.058       .  S
Fe46         O56   1.982       .  S
Fe47         O65   2.065       .  S
Fe47         O52   2.062       .  S
Fe47         O59   2.066       .  S
Fe47         O48   2.059       .  S
Fe47         O56   1.980       .  S
O48          C55   1.267       .  A
O49          C63   1.268       .  A
O50          C55   1.267       .  A
O51          C54   1.268       .  A
O52          C64   1.267       .  A
O53          C66   1.268       .  A
C54          O59   1.269       .  A
C54        C2170   1.473       .  S
C55        C2224   1.468       .  S
O57          C60   1.267       .  A
O58          C60   1.266       .  A
C60        C2407   1.467       .  S
O61          C66   1.267       .  A
O62          C64   1.266       .  A
C63          O65   1.269       .  A
C63        C2206   1.472       .  S
C64        C2317   1.468       .  S
C66        C2188   1.466       .  S
Fe67         O83   2.066       .  S
Fe67         O73   2.061       .  S
Fe67         O80   2.060       .  S
Fe67         O72   2.063       .  S
Fe67         O78   1.980       .  S
Fe68         O71   2.062       .  S
Fe68         O75   2.069       .  S
Fe68         O79   2.059       .  S
Fe68         O84   2.067       .  S
Fe68         O78   1.982       .  S
Fe69         O87   2.066       .  S
Fe69         O74   2.057       .  S
Fe69         O81   2.060       .  S
Fe69         O70   2.069       .  S
Fe69         O78   1.982       .  S
O70          C77   1.268       .  A
O71          C85   1.268       .  A
O72          C77   1.268       .  A
O73          C76   1.268       .  A
O74          C86   1.267       .  A
O75          C88   1.269       .  A
C76          O81   1.268       .  A
C76        C2152   1.468       .  S
C77        C2389   1.473       .  S
O79          C82   1.267       .  A
O80          C82   1.267       .  A
C82        C2227   1.467       .  S
O83          C88   1.268       .  A
O84          C86   1.268       .  A
C85          O87   1.269       .  A
C85        C2116   1.470       .  S
C86        C2299   1.470       .  S
C88        C2134   1.475       .  S
Fe89        O105   2.062       .  S
Fe89         O95   2.069       .  S
Fe89        O102   2.063       .  S
Fe89         O94   2.060       .  S
Fe89        O100   1.984       .  S
Fe90         O93   2.065       .  S
Fe90         O97   2.067       .  S
Fe90        O101   2.063       .  S
Fe90        O106   2.062       .  S
Fe90        O100   1.981       .  S
Fe91        O109   2.075       .  S
Fe91         O96   2.071       .  S
Fe91        O103   2.068       .  S
Fe91         O92   2.068       .  S
Fe91        O100   1.981       .  S
O92          C99   1.269       .  A
O93         C107   1.269       .  A
O94          C99   1.266       .  A
O95          C98   1.269       .  A
O96         C108   1.269       .  A
O97         C110   1.270       .  A
C98         O103   1.270       .  A
C98        C2044   1.474       .  S
C99        C2101   1.471       .  S
O101        C104   1.267       .  A
O102        C104   1.268       .  A
C104       C2080   1.471       .  S
O105        C110   1.268       .  A
O106        C108   1.268       .  A
C107        O109   1.270       .  A
C107       C2026   1.477       .  S
C108       C2062   1.474       .  S
C110       C2371   1.471       .  S
Fe111       O127   2.072       .  S
Fe111       O117   2.058       .  S
Fe111       O124   2.057       .  S
Fe111       O116   2.069       .  S
Fe111       O122   1.979       .  S
Fe112       O115   2.069       .  S
Fe112       O119   2.064       .  S
Fe112       O123   2.065       .  S
Fe112       O128   2.063       .  S
Fe112       O122   1.983       .  S
Fe113       O131   2.058       .  S
Fe113       O118   2.065       .  S
Fe113       O125   2.071       .  S
Fe113       O114   2.059       .  S
Fe113       O122   1.982       .  S
O114        C121   1.267       .  A
O115        C129   1.269       .  A
O116        C121   1.269       .  A
O117        C120   1.267       .  A
O118        C130   1.268       .  A
O119        C132   1.269       .  A
C120        O125   1.269       .  A
C120       C1957   1.473       .  S
C121       C2098   1.470       .  S
O123        C126   1.267       .  A
O124        C126   1.266       .  A
C126       C1990   1.469       .  S
O127        C132   1.271       .  A
O128        C130   1.267       .  A
C129        O131   1.267       .  A
C129       C1972   1.471       .  S
C130       C2008   1.471       .  S
C132       C2173   1.473       .  S
Fe133       O149   2.066       .  S
Fe133       O139   2.061       .  S
Fe133       O146   2.058       .  S
Fe133       O138   2.062       .  S
Fe133       O144   1.982       .  S
Fe134       O137   2.069       .  S
Fe134       O141   2.062       .  S
Fe134       O145   2.067       .  S
Fe134       O150   2.064       .  S
Fe134       O144   1.983       .  S
Fe135       O153   2.068       .  S
Fe135       O140   2.059       .  S
Fe135       O147   2.062       .  S
Fe135       O136   2.069       .  S
Fe135       O144   1.982       .  S
O136        C143   1.269       .  A
O137        C151   1.269       .  A
O138        C143   1.268       .  A
O139        C142   1.267       .  A
O140        C152   1.266       .  A
O141        C154   1.268       .  A
C142        O147   1.267       .  A
C142       C1903   1.470       .  S
C143       C1939   1.472       .  S
O145        C148   1.268       .  A
O146        C148   1.266       .  A
C148       C2083   1.471       .  S
O149        C154   1.269       .  A
O150        C152   1.267       .  A
C151        O153   1.270       .  A
C151       C1918   1.474       .  S
C152       C2011   1.470       .  S
C154       C2263   1.470       .  S
Fe155       O171   2.064       .  S
Fe155       O161   2.061       .  S
Fe155       O168   2.056       .  S
Fe155       O160   2.062       .  S
Fe155       O166   1.983       .  S
Fe156       O159   2.062       .  S
Fe156       O163   2.074       .  S
Fe156       O167   2.062       .  S
Fe156       O172   2.068       .  S
Fe156       O166   1.982       .  S
Fe157       O175   2.070       .  S
Fe157       O162   2.066       .  S
Fe157       O169   2.068       .  S
Fe157       O158   2.068       .  S
Fe157       O166   1.982       .  S
O158        C165   1.268       .  A
O159        C173   1.268       .  A
O160        C165   1.267       .  A
O161        C164   1.267       .  A
O162        C174   1.268       .  A
O163        C176   1.270       .  A
C164        O169   1.269       .  A
C164       C1864   1.471       .  S
C165       C1936   1.472       .  S
O167        C170   1.267       .  A
O168        C170   1.266       .  A
C170       C1993   1.467       .  S
O171        C176   1.269       .  A
O172        C174   1.269       .  A
C173        O175   1.269       .  A
C173       C1882   1.473       .  S
C174       C2065   1.474       .  S
C176       C2137   1.475       .  S
Fe177       O193   2.069       .  S
Fe177       O183   2.061       .  S
Fe177       O190   2.065       .  S
Fe177       O182   2.064       .  S
Fe177       O188   1.985       .  S
Fe178       O181   2.067       .  S
Fe178       O185   2.069       .  S
Fe178       O189   2.065       .  S
Fe178       O194   2.066       .  S
Fe178       O188   1.978       .  S
Fe179       O197   2.067       .  S
Fe179       O184   2.065       .  S
Fe179       O191   2.063       .  S
Fe179       O180   2.064       .  S
Fe179       O188   1.982       .  S
O180        C187   1.268       .  A
O181        C195   1.268       .  A
O182        C187   1.268       .  A
O183        C186   1.268       .  A
O184        C196   1.268       .  A
O185        C198   1.270       .  A
C186        O191   1.268       .  A
C186       C1774   1.468       .  S
C187       C1810   1.470       .  S
O189        C192   1.268       .  A
O190        C192   1.267       .  A
C192       C1828   1.473       .  S
O193        C198   1.270       .  A
O194        C196   1.268       .  A
C195        O197   1.269       .  A
C195       C1792   1.474       .  S
C196       C1846   1.473       .  S
C198       C2353   1.475       .  S
Fe199       O215   2.074       .  S
Fe199       O205   2.068       .  S
Fe199       O212   2.063       .  S
Fe199       O204   2.071       .  S
Fe199       O210   1.983       .  S
Fe200       O203   2.074       .  S
Fe200       O207   2.064       .  S
Fe200       O211   2.068       .  S
Fe200       O216   2.063       .  S
Fe200       O210   1.981       .  S
Fe201       O219   2.064       .  S
Fe201       O206   2.065       .  S
Fe201       O213   2.059       .  S
Fe201       O202   2.057       .  S
Fe201       O210   1.983       .  S
O202        C209   1.267       .  A
O203        C217   1.270       .  A
O204        C209   1.269       .  A
O205        C208   1.269       .  A
O206        C218   1.267       .  A
O207        C220   1.268       .  A
C208        O213   1.268       .  A
C208       C1720   1.470       .  S
C209       C1756   1.471       .  S
O211        C214   1.269       .  A
O212        C214   1.268       .  A
C214       C1738   1.472       .  S
O215        C220   1.270       .  A
O216        C218   1.267       .  A
C217        O219   1.269       .  A
C217       C1702   1.475       .  S
C218       C1849   1.473       .  S
C220       C2245   1.475       .  S
Fe221       O237   2.067       .  S
Fe221       O227   2.069       .  S
Fe221       O234   2.066       .  S
Fe221       O226   2.069       .  S
Fe221       O232   1.981       .  S
Fe222       O225   2.071       .  S
Fe222       O229   2.055       .  S
Fe222       O233   2.068       .  S
Fe222       O238   2.057       .  S
Fe222       O232   1.982       .  S
Fe223       O241   2.063       .  S
Fe223       O228   2.067       .  S
Fe223       O235   2.068       .  S
Fe223       O224   2.057       .  S
Fe223       O232   1.979       .  S
O224        C231   1.268       .  A
O225        C239   1.270       .  A
O226        C231   1.268       .  A
O227        C230   1.269       .  A
O228        C240   1.268       .  A
O229        C242   1.267       .  A
C230        O235   1.269       .  A
C230       C1666   1.475       .  S
C231       C1759   1.470       .  S
O233        C236   1.269       .  A
O234        C236   1.269       .  A
C236       C1831   1.473       .  S
O237        C242   1.268       .  A
O238        C240   1.266       .  A
C239        O241   1.269       .  A
C239       C1648   1.473       .  S
C240       C1684   1.471       .  S
C242       C2191   1.468       .  S
Fe243       O259   2.064       .  S
Fe243       O249   2.068       .  S
Fe243       O256   2.061       .  S
Fe243       O248   2.062       .  S
Fe243       O254   1.981       .  S
Fe244       O247   2.066       .  S
Fe244       O251   2.065       .  S
Fe244       O255   2.066       .  S
Fe244       O260   2.068       .  S
Fe244       O254   1.984       .  S
Fe245       O263   2.059       .  S
Fe245       O250   2.060       .  S
Fe245       O257   2.069       .  S
Fe245       O246   2.060       .  S
Fe245       O254   1.980       .  S
O246        C253   1.267       .  A
O247        C261   1.268       .  A
O248        C253   1.267       .  A
O249        C252   1.269       .  A
O250        C262   1.267       .  A
O251        C264   1.269       .  A
C252        O257   1.269       .  A
C252       C1630   1.475       .  S
C253       C1813   1.470       .  S
O255        C258   1.268       .  A
O256        C258   1.268       .  A
C258       C1741   1.471       .  S
O259        C264   1.268       .  A
O260        C262   1.269       .  A
C261        O263   1.268       .  A
C261       C1612   1.470       .  S
C262       C1687   1.471       .  S
C264       C2119   1.471       .  S
Fe265       O281   2.059       .  S
Fe265       O271   2.067       .  S
Fe265       O278   2.061       .  S
Fe265       O270   2.056       .  S
Fe265       O276   1.982       .  S
Fe266       O269   2.068       .  S
Fe266       O273   2.072       .  S
Fe266       O277   2.065       .  S
Fe266       O282   2.065       .  S
Fe266       O276   1.982       .  S
Fe267       O285   2.066       .  S
Fe267       O272   2.063       .  S
Fe267       O279   2.067       .  S
Fe267       O268   2.056       .  S
Fe267       O276   1.982       .  S
O268        C275   1.266       .  A
O269        C283   1.268       .  A
O270        C275   1.266       .  A
O271        C274   1.269       .  A
O272        C284   1.268       .  A
O273        C286   1.271       .  A
C274        O279   1.270       .  A
C274       C1795   1.473       .  S
C275       C1576   1.464       .  S
O277        C280   1.267       .  A
O278        C280   1.266       .  A
C280       C1558   1.471       .  S
O281        C286   1.268       .  A
O282        C284   1.269       .  A
C283        O285   1.268       .  A
C283       C1540   1.475       .  S
C284       C1597   1.471       .  S
C286       C2047   1.472       .  S
Fe287       O303   2.060       .  S
Fe287       O293   2.060       .  S
Fe287       O300   2.063       .  S
Fe287       O292   2.060       .  S
Fe287       O298   1.982       .  S
Fe288       O291   2.064       .  S
Fe288       O295   2.069       .  S
Fe288       O299   2.062       .  S
Fe288       O304   2.066       .  S
Fe288       O298   1.982       .  S
Fe289       O307   2.064       .  S
Fe289       O294   2.059       .  S
Fe289       O301   2.064       .  S
Fe289       O290   2.063       .  S
Fe289       O298   1.982       .  S
O290        C297   1.267       .  A
O291        C305   1.269       .  A
O292        C297   1.267       .  A
O293        C296   1.268       .  A
O294        C306   1.267       .  A
O295        C308   1.269       .  A
C296        O301   1.268       .  A
C296       C1615   1.469       .  S
C297       C1522   1.469       .  S
O299        C302   1.267       .  A
O300        C302   1.267       .  A
C302       C1504   1.470       .  S
O303        C308   1.268       .  A
O304        C306   1.268       .  A
C305        O307   1.268       .  A
C305       C1486   1.472       .  S
C306       C1594   1.470       .  S
C308       C1867   1.471       .  S
Fe309       O325   2.071       .  S
Fe309       O315   2.059       .  S
Fe309       O322   2.056       .  S
Fe309       O314   2.074       .  S
Fe309       O320   1.981       .  S
Fe310       O313   2.061       .  S
Fe310       O317   2.064       .  S
Fe310       O321   2.056       .  S
Fe310       O326   2.060       .  S
Fe310       O320   1.981       .  S
Fe311       O329   2.062       .  S
Fe311       O316   2.063       .  S
Fe311       O323   2.062       .  S
Fe311       O312   2.062       .  S
Fe311       O320   1.982       .  S
O312        C319   1.267       .  A
O313        C327   1.268       .  A
O314        C319   1.269       .  A
O315        C318   1.268       .  A
O316        C328   1.268       .  A
O317        C330   1.268       .  A
C318        O323   1.268       .  A
C318       C1450   1.468       .  S
C319       C1468   1.475       .  S
O321        C324   1.266       .  A
O322        C324   1.267       .  A
C324       C1579   1.464       .  S
O325        C330   1.269       .  A
O326        C328   1.267       .  A
C327        O329   1.268       .  A
C327       C1900   1.469       .  S
C328       C1507   1.469       .  S
C330       C1705   1.474       .  S
Fe331       O347   2.064       .  S
Fe331       O337   2.065       .  S
Fe331       O344   2.060       .  S
Fe331       O336   2.059       .  S
Fe331       O342   1.983       .  S
Fe332       O335   2.063       .  S
Fe332       O339   2.068       .  S
Fe332       O343   2.061       .  S
Fe332       O348   2.068       .  S
Fe332       O342   1.981       .  S
Fe333       O351   2.061       .  S
Fe333       O338   2.068       .  S
Fe333       O345   2.068       .  S
Fe333       O334   2.062       .  S
Fe333       O342   1.982       .  S
O334        C341   1.267       .  A
O335        C349   1.268       .  A
O336        C341   1.266       .  A
O337        C340   1.269       .  A
O338        C350   1.269       .  A
O339        C352   1.269       .  A
C340        O345   1.270       .  A
C340       C1651   1.472       .  S
C341       C1525   1.469       .  S
O343        C346   1.268       .  A
O344        C346   1.267       .  A
C346       C1561   1.468       .  S
O347        C352   1.268       .  A
O348        C350   1.269       .  A
C349        O351   1.268       .  A
C349       C1435   1.469       .  S
C350       C1471   1.475       .  S
C352       C1954   1.473       .  S
Fe353       O369   2.058       .  S
Fe353       O359   2.065       .  S
Fe353       O366   2.060       .  S
Fe353       O358   2.061       .  S
Fe353       O364   1.983       .  S
Fe354       O357   2.068       .  S
Fe354       O361   2.061       .  S
Fe354       O365   2.060       .  S
Fe354       O370   2.064       .  S
Fe354       O364   1.983       .  S
Fe355       O373   2.061       .  S
Fe355       O360   2.060       .  S
Fe355       O367   2.065       .  S
Fe355       O356   2.063       .  S
Fe355       O364   1.979       .  S
O356        C363   1.268       .  A
O357        C371   1.268       .  A
O358        C363   1.267       .  A
O359        C362   1.268       .  A
O360        C372   1.267       .  A
O361        C374   1.268       .  A
C362        O367   1.268       .  A
C362       C1360   1.473       .  S
C363       C1399   1.470       .  S
O365        C368   1.267       .  A
O366        C368   1.267       .  A
C368       C1378   1.469       .  S
O369        C374   1.268       .  A
O370        C372   1.267       .  A
C371        O373   1.268       .  A
C371       C1345   1.472       .  S
C372       C1414   1.470       .  S
C374       C2335   1.466       .  S
Fe375       O391   2.062       .  S
Fe375       O381   2.067       .  S
Fe375       O388   2.060       .  S
Fe375       O380   2.066       .  S
Fe375       O386   1.983       .  S
Fe376       O379   2.063       .  S
Fe376       O383   2.067       .  S
Fe376       O387   2.064       .  S
Fe376       O392   2.069       .  S
Fe376       O386   1.983       .  S
Fe377       O395   2.065       .  S
Fe377       O382   2.056       .  S
Fe377       O389   2.059       .  S
Fe377       O378   2.061       .  S
Fe377       O386   1.980       .  S
O378        C385   1.267       .  A
O379        C393   1.269       .  A
O380        C385   1.267       .  A
O381        C384   1.269       .  A
O382        C394   1.266       .  A
O383        C396   1.269       .  A
C384        O389   1.268       .  A
C384       C1270   1.471       .  S
C385       C1309   1.471       .  S
O387        C390   1.268       .  A
O388        C390   1.268       .  A
C390       C1324   1.469       .  S
O391        C396   1.268       .  A
O392        C394   1.268       .  A
C393        O395   1.268       .  A
C393       C1288   1.471       .  S
C394       C1417   1.471       .  S
C396       C2209   1.472       .  S
Fe397       O413   2.068       .  S
Fe397       O403   2.064       .  S
Fe397       O410   2.061       .  S
Fe397       O402   2.068       .  S
Fe397       O408   1.979       .  S
Fe398       O401   2.063       .  S
Fe398       O405   2.071       .  S
Fe398       O409   2.063       .  S
Fe398       O414   2.066       .  S
Fe398       O408   1.984       .  S
Fe399       O417   2.057       .  S
Fe399       O404   2.059       .  S
Fe399       O411   2.066       .  S
Fe399       O400   2.058       .  S
Fe399       O408   1.983       .  S
O400        C407   1.267       .  A
O401        C415   1.268       .  A
O402        C407   1.268       .  A
O403        C406   1.268       .  A
O404        C416   1.267       .  A
O405        C418   1.269       .  A
C406        O411   1.268       .  A
C406       C1234   1.472       .  S
C407       C1396   1.471       .  S
O409        C412   1.268       .  A
O410        C412   1.267       .  A
C412       C1327   1.470       .  S
O413        C418   1.270       .  A
O414        C416   1.268       .  A
C415        O417   1.267       .  A
C415       C1216   1.467       .  S
C416       C1255   1.469       .  S
C418       C2278   1.476       .  S
Fe419       O435   2.064       .  S
Fe419       O425   2.066       .  S
Fe419       O432   2.058       .  S
Fe419       O424   2.064       .  S
Fe419       O430   1.981       .  S
Fe420       O423   2.068       .  S
Fe420       O427   2.057       .  S
Fe420       O431   2.067       .  S
Fe420       O436   2.057       .  S
Fe420       O430   1.983       .  S
Fe421       O439   2.061       .  S
Fe421       O426   2.064       .  S
Fe421       O433   2.067       .  S
Fe421       O422   2.065       .  S
Fe421       O430   1.981       .  S
O422        C429   1.267       .  A
O423        C437   1.269       .  A
O424        C429   1.268       .  A
O425        C428   1.268       .  A
O426        C438   1.268       .  A
O427        C440   1.267       .  A
C428        O433   1.269       .  A
C428       C1201   1.474       .  S
C429       C1306   1.472       .  S
O431        C434   1.268       .  A
O432        C434   1.267       .  A
C434       C1381   1.470       .  S
O435        C440   1.269       .  A
O436        C438   1.266       .  A
C437        O439   1.268       .  A
C437       C1183   1.471       .  S
C438       C1252   1.468       .  S
C440       C2155   1.468       .  S
Fe441       O457   2.063       .  S
Fe441       O447   2.066       .  S
Fe441       O454   2.063       .  S
Fe441       O446   2.061       .  S
Fe441       O452   1.983       .  S
Fe442       O445   2.067       .  S
Fe442       O449   2.071       .  S
Fe442       O453   2.066       .  S
Fe442       O458   2.066       .  S
Fe442       O452   1.982       .  S
Fe443       O461   2.067       .  S
Fe443       O448   2.066       .  S
Fe443       O455   2.068       .  S
Fe443       O444   2.063       .  S
Fe443       O452   1.983       .  S
O444        C451   1.268       .  A
O445        C459   1.270       .  A
O446        C451   1.266       .  A
O447        C450   1.269       .  A
O448        C460   1.268       .  A
O449        C462   1.269       .  A
C450        O455   1.270       .  A
C450       C1237   1.473       .  S
C451       C1147   1.470       .  S
O453        C456   1.268       .  A
O454        C456   1.268       .  A
C456       C1165   1.471       .  S
O457        C462   1.268       .  A
O458        C460   1.268       .  A
C459        O461   1.269       .  A
C459       C1921   1.473       .  S
C460       C1129   1.474       .  S
C462       C1108   1.475       .  S
Fe463       O479   2.063       .  S
Fe463       O469   2.063       .  S
Fe463       O476   2.064       .  S
Fe463       O468   2.057       .  S
Fe463       O474   1.984       .  S
Fe464       O467   2.062       .  S
Fe464       O471   2.071       .  S
Fe464       O475   2.059       .  S
Fe464       O480   2.069       .  S
Fe464       O474   1.980       .  S
Fe465       O483   2.066       .  S
Fe465       O470   2.064       .  S
Fe465       O477   2.067       .  S
Fe465       O466   2.061       .  S
Fe465       O474   1.982       .  S
O466        C473   1.267       .  A
O467        C481   1.268       .  A
O468        C473   1.266       .  A
O469        C472   1.268       .  A
O470        C482   1.268       .  A
O471        C484   1.270       .  A
C472        O477   1.269       .  A
C472       C1885   1.472       .  S
C473       C1072   1.466       .  S
O475        C478   1.267       .  A
O476        C478   1.267       .  A
C478       C1093   1.470       .  S
O479        C484   1.268       .  A
O480        C482   1.269       .  A
C481        O483   1.268       .  A
C481       C1054   1.471       .  S
C482       C1162   1.473       .  S
C484       C1198   1.474       .  S
Fe485       O501   2.066       .  S
Fe485       O491   2.067       .  S
Fe485       O498   2.062       .  S
Fe485       O490   2.058       .  S
Fe485       O496   1.982       .  S
Fe486       O489   2.072       .  S
Fe486       O493   2.069       .  S
Fe486       O497   2.066       .  S
Fe486       O502   2.067       .  S
Fe486       O496   1.980       .  S
Fe487       O505   2.060       .  S
Fe487       O492   2.068       .  S
Fe487       O499   2.069       .  S
Fe487       O488   2.058       .  S
Fe487       O496   1.983       .  S
O488        C495   1.267       .  A
O489        C503   1.270       .  A
O490        C495   1.267       .  A
O491        C494   1.269       .  A
O492        C504   1.268       .  A
O493        C506   1.269       .  A
C494        O499   1.269       .  A
C494       C2029   1.475       .  S
C495       C1075   1.466       .  S
O497        C500   1.268       .  A
O498        C500   1.266       .  A
C500       C1144   1.471       .  S
O501        C506   1.269       .  A
O502        C504   1.268       .  A
C503        O505   1.268       .  A
C503       C1018   1.473       .  S
C504       C1039   1.475       .  S
C506       C1363   1.474       .  S
Fe507       O523   2.061       .  S
Fe507       O513   2.074       .  S
Fe507       O520   2.070       .  S
Fe507       O512   2.063       .  S
Fe507       O518   1.981       .  S
Fe508       O511   2.060       .  S
Fe508       O515   2.070       .  S
Fe508       O519   2.061       .  S
Fe508       O524   2.068       .  S
Fe508       O518   1.983       .  S
Fe509       O527   2.071       .  S
Fe509       O514   2.058       .  S
Fe509       O521   2.059       .  S
Fe509       O510   2.069       .  S
Fe509       O518   1.982       .  S
O510        C517   1.269       .  A
O511        C525   1.268       .  A
O512        C517   1.268       .  A
O513        C516   1.269       .  A
O514        C526   1.266       .  A
O515        C528   1.269       .  A
C516        O521   1.267       .  A
C516       C1003   1.474       .  S
C517       C1036   1.473       .  S
O519        C522   1.267       .  A
O520        C522   1.269       .  A
C522       C1126   1.473       .  S
O523        C528   1.268       .  A
O524        C526   1.268       .  A
C525        O527   1.269       .  A
C525       C1273   1.472       .  S
C526       C1090   1.471       .  S
C528       C1975   1.472       .  S
Fe529       O545   2.068       .  S
Fe529       O535   2.069       .  S
Fe529       O542   2.068       .  S
Fe529       O534   2.065       .  S
Fe529       O540   1.982       .  S
Fe530       O533   2.068       .  S
Fe530       O537   2.065       .  S
Fe530       O541   2.064       .  S
Fe530       O546   2.061       .  S
Fe530       O540   1.980       .  S
Fe531       O549   2.059       .  S
Fe531       O536   2.062       .  S
Fe531       O543   2.066       .  S
Fe531       O532   2.057       .  S
Fe531       O540   1.984       .  S
O532        C539   1.266       .  A
O533        C547   1.269       .  A
O534        C539   1.268       .  A
O535        C538   1.270       .  A
O536        C548   1.268       .  A
O537        C550   1.269       .  A
C538        O543   1.269       .  A
C538       C1543   1.474       .  S
C539        C946   1.469       .  S
O541        C544   1.268       .  A
O542        C544   1.268       .  A
C544        C982   1.473       .  S
O545        C550   1.269       .  A
O546        C548   1.267       .  A
C547        O549   1.267       .  A
C547        C928   1.471       .  S
C548        C967   1.469       .  S
C550       C1021   1.473       .  S
Fe551       O567   2.056       .  S
Fe551       O557   2.073       .  S
Fe551       O564   2.070       .  S
Fe551       O556   2.055       .  S
Fe551       O562   1.983       .  S
Fe552       O555   2.061       .  S
Fe552       O559   2.068       .  S
Fe552       O563   2.057       .  S
Fe552       O568   2.067       .  S
Fe552       O562   1.979       .  S
Fe553       O571   2.074       .  S
Fe553       O558   2.063       .  S
Fe553       O565   2.063       .  S
Fe553       O554   2.066       .  S
Fe553       O562   1.982       .  S
O554        C561   1.268       .  A
O555        C569   1.268       .  A
O556        C561   1.266       .  A
O557        C560   1.270       .  A
O558        C570   1.268       .  A
O559        C572   1.269       .  A
C560        O565   1.269       .  A
C560        C877   1.473       .  S
C561        C892   1.469       .  S
O563        C566   1.266       .  A
O564        C566   1.269       .  A
C566        C910   1.472       .  S
O567        C572   1.267       .  A
O568        C570   1.269       .  A
C569        O571   1.269       .  A
C569       C1000   1.475       .  S
C570        C985   1.472       .  S
C572       C1432   1.469       .  S
Fe573       O589   2.060       .  S
Fe573       O579   2.073       .  S
Fe573       O586   2.063       .  S
Fe573       O578   2.064       .  S
Fe573       O584   1.981       .  S
Fe574       O577   2.064       .  S
Fe574       O581   2.070       .  S
Fe574       O585   2.064       .  S
Fe574       O590   2.070       .  S
Fe574       O584   1.986       .  S
Fe575       O593   2.065       .  S
Fe575       O580   2.061       .  S
Fe575       O587   2.064       .  S
Fe575       O576   2.069       .  S
Fe575       O584   1.981       .  S
O576        C583   1.269       .  A
O577        C591   1.268       .  A
O578        C583   1.267       .  A
O579        C582   1.270       .  A
O580        C592   1.268       .  A
O581        C594   1.269       .  A
C582        O587   1.268       .  A
C582       C1111   1.475       .  S
C583        C856   1.474       .  S
O585        C588   1.268       .  A
O586        C588   1.268       .  A
C588        C964   1.471       .  S
O589        C594   1.268       .  A
O590        C592   1.269       .  A
C591        O593   1.269       .  A
C591       C1453   1.471       .  S
C592        C913   1.473       .  S
C594        C838   1.472       .  S
Fe595       O611   2.068       .  S
Fe595       O601   2.062       .  S
Fe595       O608   2.060       .  S
Fe595       O600   2.065       .  S
Fe595       O606   1.982       .  S
Fe596       O599   2.065       .  S
Fe596       O603   2.068       .  S
Fe596       O607   2.060       .  S
Fe596       O612   2.061       .  S
Fe596       O606   1.982       .  S
Fe597       O615   2.065       .  S
Fe597       O602   2.065       .  S
Fe597       O609   2.068       .  S
Fe597       O598   2.068       .  S
Fe597       O606   1.984       .  S
O598        C605   1.268       .  A
O599        C613   1.268       .  A
O600        C605   1.268       .  A
O601        C604   1.268       .  A
O602        C614   1.268       .  A
O603        C616   1.270       .  A
C604        O609   1.269       .  A
C604       C1057   1.472       .  S
C605        C859   1.474       .  S
O607        C610   1.267       .  A
O608        C610   1.267       .  A
C610        C895   1.468       .  S
O611        C616   1.269       .  A
O612        C614   1.268       .  A
C613        O615   1.268       .  A
C613       C1489   1.472       .  S
C614        C949   1.470       .  S
C616        C820   1.475       .  S
Fe617       O633   2.062       .  S
Fe617       O623   2.065       .  S
Fe617       O630   2.067       .  S
Fe617       O622   2.057       .  S
Fe617       O628   1.981       .  S
Fe618       O621   2.066       .  S
Fe618       O625   2.072       .  S
Fe618       O629   2.060       .  S
Fe618       O634   2.075       .  S
Fe618       O628   1.982       .  S
Fe619       O637   2.067       .  S
Fe619       O624   2.061       .  S
Fe619       O631   2.060       .  S
Fe619       O620   2.066       .  S
Fe619       O628   1.980       .  S
O620        C627   1.269       .  A
O621        C635   1.269       .  A
O622        C627   1.267       .  A
O623        C626   1.268       .  A
O624        C636   1.267       .  A
O625        C638   1.270       .  A
C626        O631   1.267       .  A
C626       C1291   1.470       .  S
C627        C784   1.468       .  S
O629        C632   1.267       .  A
O630        C632   1.268       .  A
C632        C766   1.471       .  S
O633        C638   1.268       .  A
O634        C636   1.269       .  A
C635        O637   1.270       .  A
C635        C874   1.473       .  S
C636        C802   1.476       .  S
C638       C1669   1.474       .  S
Fe639       O655   2.067       .  S
Fe639       O645   2.071       .  S
Fe639       O652   2.069       .  S
Fe639       O644   2.069       .  S
Fe639       O650   1.980       .  S
Fe640       O643   2.067       .  S
Fe640       O647   2.067       .  S
Fe640       O651   2.067       .  S
Fe640       O656   2.061       .  S
Fe640       O650   1.984       .  S
Fe641       O659   2.062       .  S
Fe641       O646   2.063       .  S
Fe641       O653   2.067       .  S
Fe641       O642   2.064       .  S
Fe641       O650   1.984       .  S
O642        C649   1.268       .  A
O643        C657   1.269       .  A
O644        C649   1.269       .  A
O645        C648   1.269       .  A
O646        C658   1.267       .  A
O647        C660   1.268       .  A
C648        O653   1.269       .  A
C648       C1633   1.476       .  S
C649        C751   1.474       .  S
O651        C654   1.269       .  A
O652        C654   1.269       .  A
C654        C805   1.475       .  S
O655        C660   1.269       .  A
O656        C658   1.267       .  A
C657        O659   1.269       .  A
C657       C1180   1.471       .  S
C658        C730   1.469       .  S
C660        C823   1.475       .  S
Fe661       O677   2.067       .  S
Fe661       O667   2.064       .  S
Fe661       O674   2.061       .  S
Fe661       O666   2.067       .  S
Fe661       O672   1.981       .  S
Fe662       O665   2.058       .  S
Fe662       O669   2.064       .  S
Fe662       O673   2.060       .  S
Fe662       O678   2.063       .  S
Fe662       O672   1.982       .  S
Fe663       O681   2.064       .  S
Fe663       O668   2.067       .  S
Fe663       O675   2.062       .  S
Fe663       O664   2.061       .  S
Fe663       O672   1.981       .  S
O664        C671   1.268       .  A
O665        C679   1.267       .  A
O666        C671   1.269       .  A
O667        C670   1.268       .  A
O668        C680   1.268       .  A
O669        C682   1.268       .  A
C670        O675   1.267       .  A
C670        C931   1.471       .  S
C671        C715   1.471       .  S
O673        C676   1.267       .  A
O674        C676   1.267       .  A
C676        C787   1.468       .  S
O677        C682   1.269       .  A
O678        C680   1.268       .  A
C679        O681   1.268       .  A
C679       C1777   1.468       .  S
C680        C748   1.473       .  S
C682       C1342   1.472       .  S
Fe683       O699   2.058       .  S
Fe683       O689   2.058       .  S
Fe683       O696   2.060       .  S
Fe683       O688   2.056       .  S
Fe683       O694   1.980       .  S
Fe684       O687   2.064       .  S
Fe684       O691   2.064       .  S
Fe684       O695   2.062       .  S
Fe684       O700   2.062       .  S
Fe684       O694   1.982       .  S
Fe685       O703   2.067       .  S
Fe685       O690   2.065       .  S
Fe685       O697   2.066       .  S
Fe685       O686   2.064       .  S
Fe685       O694   1.982       .  S
O686        C693   1.268       .  A
O687        C701   1.268       .  A
O688        C693   1.267       .  A
O689        C692   1.267       .  A
O690        C702   1.268       .  A
O691        C704   1.268       .  A
C692        O697   1.268       .  A
C692       C1219   1.469       .  S
C693        C733   1.468       .  S
O695        C698   1.267       .  A
O696        C698   1.267       .  A
C698        C769   1.470       .  S
O699        C704   1.268       .  A
O700        C702   1.267       .  A
C701        O703   1.269       .  A
C701        C841   1.472       .  S
C702        C712   1.471       .  S
C704       C1723   1.468       .  S
C705        C710   1.384       .  A
C705        C706   1.403       .  A
C705        N711   1.342       .  A
C706        C707   1.401       .  A
C706        H717   1.082       .  S
C707        C716   1.377       .  A
C707        C708   1.384       .  A
C708        C709   1.404       .  A
C708        N714   1.343       .  A
C709        C710   1.403       .  A
C709        H718   1.082       .  S
C710        C713   1.379       .  A
N711        C712   1.355       .  A
N711        H721   1.045       .  S
C712        C713   1.396       .  A
C713        H719   1.082       .  S
N714        C715   1.356       .  A
N714        H722   1.045       .  S
C715        C716   1.395       .  A
C716        H720   1.082       .  S
C723        C728   1.385       .  A
C723        C724   1.402       .  A
C723        N729   1.342       .  A
C724        C725   1.401       .  A
C724        H735   1.082       .  S
C725        C734   1.375       .  A
C725        C726   1.385       .  A
C726        C727   1.402       .  A
C726        N732   1.343       .  A
C727        C728   1.402       .  A
C727        H736   1.082       .  S
C728        C731   1.377       .  A
N729        C730   1.355       .  A
N729        H739   1.045       .  S
C730        C731   1.395       .  A
C731        H737   1.082       .  S
N732        C733   1.355       .  A
N732        H740   1.045       .  S
C733        C734   1.394       .  A
C734        H738   1.083       .  S
C741        C746   1.384       .  A
C741        C742   1.403       .  A
C741        N747   1.343       .  A
C742        C743   1.402       .  A
C742        H753   1.082       .  S
C743        C752   1.378       .  A
C743        C744   1.384       .  A
C744        C745   1.404       .  A
C744        N750   1.344       .  A
C745        C746   1.403       .  A
C745        H754   1.082       .  S
C746        C749   1.379       .  A
N747        C748   1.355       .  A
N747        H757   1.045       .  S
C748        C749   1.396       .  A
C749        H755   1.082       .  S
N750        C751   1.357       .  A
N750        H758   1.045       .  S
C751        C752   1.396       .  A
C752        H756   1.082       .  S
C759        C764   1.385       .  A
C759        C760   1.402       .  A
C759        N765   1.342       .  A
C760        C761   1.401       .  A
C760        H771   1.082       .  S
C761        C770   1.376       .  A
C761        C762   1.385       .  A
C762        C763   1.403       .  A
C762        N768   1.343       .  A
C763        C764   1.403       .  A
C763        H772   1.082       .  S
C764        C767   1.378       .  A
N765        C766   1.355       .  A
N765        H775   1.045       .  S
C766        C767   1.396       .  A
C767        H773   1.082       .  S
N768        C769   1.356       .  A
N768        H776   1.045       .  S
C769        C770   1.395       .  A
C770        H774   1.082       .  S
C777        C782   1.385       .  A
C777        C778   1.401       .  A
C777        N783   1.342       .  A
C778        C779   1.400       .  A
C778        H789   1.082       .  S
C779        C788   1.375       .  A
C779        C780   1.385       .  A
C780        C781   1.402       .  A
C780        N786   1.343       .  A
C781        C782   1.402       .  A
C781        H790   1.082       .  S
C782        C785   1.376       .  A
N783        C784   1.355       .  A
N783        H793   1.044       .  S
C784        C785   1.395       .  A
C785        H791   1.083       .  S
N786        C787   1.356       .  A
N786        H794   1.044       .  S
C787        C788   1.394       .  A
C788        H792   1.082       .  S
C795        C800   1.384       .  A
C795        C796   1.404       .  A
C795        N801   1.345       .  A
C796        C797   1.404       .  A
C796        H807   1.082       .  S
C797        C806   1.379       .  A
C797        C798   1.384       .  A
C798        C799   1.404       .  A
C798        N804   1.344       .  A
C799        C800   1.403       .  A
C799        H808   1.082       .  S
C800        C803   1.378       .  A
N801        C802   1.356       .  A
N801        H811   1.045       .  S
C802        C803   1.396       .  A
C803        H809   1.082       .  S
N804        C805   1.356       .  A
N804        H812   1.045       .  S
C805        C806   1.396       .  A
C806        H810   1.082       .  S
C813        C818   1.384       .  A
C813        C814   1.402       .  A
C813        N819   1.343       .  A
C814        C815   1.402       .  A
C814        H825   1.082       .  S
C815        C824   1.377       .  A
C815        C816   1.384       .  A
C816        C817   1.406       .  A
C816        N822   1.346       .  A
C817        C818   1.405       .  A
C817        H826   1.082       .  S
C818        C821   1.380       .  A
N819        C820   1.356       .  A
N819        H829   1.045       .  S
C820        C821   1.397       .  A
C821        H827   1.082       .  S
N822        C823   1.357       .  A
N822        H830   1.045       .  S
C823        C824   1.395       .  A
C824        H828   1.082       .  S
C831        C836   1.385       .  A
C831        C832   1.403       .  A
C831        N837   1.344       .  A
C832        C833   1.403   1_545  A
C832        H843   1.082       .  S
C833        C842   1.377       .  A
C833        C834   1.385       .  A
C834        C835   1.403   1_565  A
C834        N840   1.343       .  A
C835        C836   1.402       .  A
C835        H844   1.082       .  S
C836        C839   1.376       .  A
N837        C838   1.356       .  A
N837        H847   1.045       .  S
C838        C839   1.396       .  A
C839        H845   1.082       .  S
N840        C841   1.356       .  A
N840        H848   1.045       .  S
C841        C842   1.396       .  A
C842        H846   1.082       .  S
C849        C854   1.384       .  A
C849        C850   1.405       .  A
C849        N855   1.344       .  A
C850        C851   1.404       .  A
C850        H861   1.082       .  S
C851        C860   1.381       .  A
C851        C852   1.384       .  A
C852        C853   1.403       .  A
C852        N858   1.343       .  A
C853        C854   1.402       .  A
C853        H862   1.082       .  S
C854        C857   1.378       .  A
N855        C856   1.357       .  A
N855        H865   1.045       .  S
C856        C857   1.395       .  A
C857        H863   1.082       .  S
N858        C859   1.356       .  A
N858        H866   1.045       .  S
C859        C860   1.397       .  A
C860        H864   1.082       .  S
C867        C872   1.384       .  A
C867        C868   1.405       .  A
C867        N873   1.344       .  A
C868        C869   1.404       .  A
C868        H879   1.082       .  S
C869        C878   1.380       .  A
C869        C870   1.384       .  A
C870        C871   1.403       .  A
C870        N876   1.342       .  A
C871        C872   1.401       .  A
C871        H880   1.082       .  S
C872        C875   1.377       .  A
N873        C874   1.357       .  A
N873        H883   1.045       .  S
C874        C875   1.395       .  A
C875        H881   1.082       .  S
N876        C877   1.356       .  A
N876        H884   1.045       .  S
C877        C878   1.397       .  A
C878        H882   1.082       .  S
C885        C890   1.385       .  A
C885        C886   1.402       .  A
C885        N891   1.342       .  A
C886        C887   1.401       .  A
C886        H897   1.082       .  S
C887        C896   1.376       .  A
C887        C888   1.385       .  A
C888        C889   1.402       .  A
C888        N894   1.342       .  A
C889        C890   1.402       .  A
C889        H898   1.082       .  S
C890        C893   1.377       .  A
N891        C892   1.355       .  A
N891        H901   1.045       .  S
C892        C893   1.395       .  A
C893        H899   1.083       .  S
N894        C895   1.355       .  A
N894        H902   1.045       .  S
C895        C896   1.395       .  A
C896        H900   1.082       .  S
C903        C908   1.385       .  A
C903        C904   1.402       .  A
C903        N909   1.343       .  A
C904        C905   1.402       .  A
C904        H915   1.082       .  S
C905        C914   1.376       .  A
C905        C906   1.385       .  A
C906        C907   1.404       .  A
C906        N912   1.345       .  A
C907        C908   1.403       .  A
C907        H916   1.082       .  S
C908        C911   1.378       .  A
N909        C910   1.355       .  A
N909        H919   1.045       .  S
C910        C911   1.396       .  A
C911        H917   1.082       .  S
N912        C913   1.356       .  A
N912        H920   1.045       .  S
C913        C914   1.395       .  A
C914        H918   1.082       .  S
C921        C926   1.385       .  A
C921        C922   1.403       .  A
C921        N927   1.343       .  A
C922        C923   1.402   1_545  A
C922        H933   1.082       .  S
C923        C932   1.378       .  A
C923        C924   1.385       .  A
C924        C925   1.403   1_565  A
C924        N930   1.342       .  A
C925        C926   1.402       .  A
C925        H934   1.082       .  S
C926        C929   1.377       .  A
N927        C928   1.355       .  A
N927        H937   1.044       .  S
C928        C929   1.396       .  A
C929        H935   1.083       .  S
N930        C931   1.356       .  A
N930        H938   1.045       .  S
C931        C932   1.395       .  A
C932        H936   1.082       .  S
C939        C944   1.385       .  A
C939        C940   1.401       .  A
C939        N945   1.342       .  A
C940        C941   1.401       .  A
C940        H951   1.082       .  S
C941        C950   1.375       .  A
C941        C942   1.385       .  A
C942        C943   1.403       .  A
C942        N948   1.344       .  A
C943        C944   1.403       .  A
C943        H952   1.082       .  S
C944        C947   1.377       .  A
N945        C946   1.355       .  A
N945        H955   1.045       .  S
C946        C947   1.396       .  A
C947        H953   1.082       .  S
N948        C949   1.356       .  A
N948        H956   1.045       .  S
C949        C950   1.394       .  A
C950        H954   1.082       .  S
C957        C962   1.385       .  A
C957        C958   1.402       .  A
C957        N963   1.342       .  A
C958        C959   1.401       .  A
C958        H969   1.082       .  S
C959        C968   1.377       .  A
C959        C960   1.385       .  A
C960        C961   1.403       .  A
C960        N966   1.342       .  A
C961        C962   1.402       .  A
C961        H970   1.082       .  S
C962        C965   1.378       .  A
N963        C964   1.355       .  A
N963        H973   1.045       .  S
C964        C965   1.396       .  A
C965        H971   1.082       .  S
N966        C967   1.356       .  A
N966        H974   1.045       .  S
C967        C968   1.395       .  A
C968        H972   1.082       .  S
C975        C980   1.384       .  A
C975        C976   1.405       .  A
C975        N981   1.344       .  A
C976        C977   1.404       .  A
C976        H987   1.082       .  S
C977        C986   1.379       .  A
C977        C978   1.384       .  A
C978        C979   1.403       .  A
C978        N984   1.343       .  A
C979        C980   1.402       .  A
C979        H988   1.082       .  S
C980        C983   1.377       .  A
N981        C982   1.357       .  A
N981        H991   1.045       .  S
C982        C983   1.395       .  A
C983        H989   1.082       .  S
N984        C985   1.355       .  A
N984        H992   1.045       .  S
C985        C986   1.396       .  A
C986        H990   1.082       .  S
C993        C998   1.384       .  A
C993        C994   1.404       .  A
C993        N999   1.345       .  A
C994        C995   1.403   1_455  A
C994       H1005   1.082       .  S
C995       C1004   1.378       .  A
C995        C996   1.384       .  A
C996        C997   1.404   1_655  A
C996       N1002   1.345       .  A
C997        C998   1.403       .  A
C997       H1006   1.082       .  S
C998       C1001   1.378       .  A
N999       C1000   1.356       .  A
N999       H1009   1.045       .  S
C1000      C1001   1.396       .  A
C1001      H1007   1.082       .  S
N1002      C1003   1.356       .  A
N1002      H1010   1.045       .  S
C1003      C1004   1.396       .  A
C1004      H1008   1.082       .  S
C1011      C1016   1.385       .  A
C1011      C1012   1.402   1_655  A
C1011      N1017   1.343       .  A
C1012      C1013   1.402       .  A
C1012      H1023   1.082       .  S
C1013      C1022   1.377       .  A
C1013      C1014   1.384       .  A
C1014      C1015   1.404       .  A
C1014      N1020   1.344       .  A
C1015      C1016   1.404   1_455  A
C1015      H1024   1.082       .  S
C1016      C1019   1.378       .  A
N1017      C1018   1.355       .  A
N1017      H1027   1.045       .  S
C1018      C1019   1.397       .  A
C1019      H1025   1.082       .  S
N1020      C1021   1.357       .  A
N1020      H1028   1.045       .  S
C1021      C1022   1.395       .  A
C1022      H1026   1.082       .  S
C1029      C1034   1.384       .  A
C1029      C1030   1.404       .  A
C1029      N1035   1.344       .  A
C1030      C1031   1.404       .  A
C1030      H1041   1.082       .  S
C1031      C1040   1.379       .  A
C1031      C1032   1.384       .  A
C1032      C1033   1.404       .  A
C1032      N1038   1.344       .  A
C1033      C1034   1.402       .  A
C1033      H1042   1.082       .  S
C1034      C1037   1.378       .  A
N1035      C1036   1.357       .  A
N1035      H1045   1.045       .  S
C1036      C1037   1.395       .  A
C1037      H1043   1.082       .  S
N1038      C1039   1.356       .  A
N1038      H1046   1.045       .  S
C1039      C1040   1.397       .  A
C1040      H1044   1.082       .  S
C1047      C1052   1.384       .  A
C1047      C1048   1.403       .  A
C1047      N1053   1.343       .  A
C1048      C1049   1.402       .  A
C1048      H1059   1.082       .  S
C1049      C1058   1.377       .  A
C1049      C1050   1.385       .  A
C1050      C1051   1.403       .  A
C1050      N1056   1.343       .  A
C1051      C1052   1.403       .  A
C1051      H1060   1.082       .  S
C1052      C1055   1.378       .  A
N1053      C1054   1.356       .  A
N1053      H1063   1.045       .  S
C1054      C1055   1.396       .  A
C1055      H1061   1.082       .  S
N1056      C1057   1.356       .  A
N1056      H1064   1.044       .  S
C1057      C1058   1.396       .  A
C1058      H1062   1.083       .  S
C1065      C1070   1.385       .  A
C1065      C1066   1.402       .  A
C1065      N1071   1.342       .  A
C1066      C1067   1.401       .  A
C1066      H1077   1.082       .  S
C1067      C1076   1.376       .  A
C1067      C1068   1.385       .  A
C1068      C1069   1.401       .  A
C1068      N1074   1.340       .  A
C1069      C1070   1.400       .  A
C1069      H1078   1.082       .  S
C1070      C1073   1.375       .  A
N1071      C1072   1.355       .  A
N1071      H1081   1.045       .  S
C1072      C1073   1.394       .  A
C1073      H1079   1.082       .  S
N1074      C1075   1.354       .  A
N1074      H1082   1.045       .  S
C1075      C1076   1.394       .  A
C1076      H1080   1.082       .  S
C1083      C1088   1.385       .  A
C1083      C1084   1.402       .  A
C1083      N1089   1.343       .  A
C1084      C1085   1.401       .  A
C1084      H1095   1.082       .  S
C1085      C1094   1.376       .  A
C1085      C1086   1.385       .  A
C1086      C1087   1.403       .  A
C1086      N1092   1.343       .  A
C1087      C1088   1.402       .  A
C1087      H1096   1.082       .  S
C1088      C1091   1.376       .  A
N1089      C1090   1.355       .  A
N1089      H1099   1.045       .  S
C1090      C1091   1.396       .  A
C1091      H1097   1.082       .  S
N1092      C1093   1.356       .  A
N1092      H1100   1.045       .  S
C1093      C1094   1.395       .  A
C1094      H1098   1.082       .  S
C1101      C1106   1.384       .  A
C1101      C1102   1.404       .  A
C1101      N1107   1.345       .  A
C1102      C1103   1.404       .  A
C1102      H1113   1.082       .  S
C1103      C1112   1.378       .  A
C1103      C1104   1.384       .  A
C1104      C1105   1.404       .  A
C1104      N1110   1.345       .  A
C1105      C1106   1.403       .  A
C1105      H1114   1.082       .  S
C1106      C1109   1.378       .  A
N1107      C1108   1.357       .  A
N1107      H1117   1.045       .  S
C1108      C1109   1.396       .  A
C1109      H1115   1.082       .  S
N1110      C1111   1.356       .  A
N1110      H1118   1.045       .  S
C1111      C1112   1.397       .  A
C1112      H1116   1.082       .  S
C1119      C1124   1.384       .  A
C1119      C1120   1.403       .  A
C1119      N1125   1.344       .  A
C1120      C1121   1.403       .  A
C1120      H1131   1.082       .  S
C1121      C1130   1.378       .  A
C1121      C1122   1.384       .  A
C1122      C1123   1.404       .  A
C1122      N1128   1.344       .  A
C1123      C1124   1.403       .  A
C1123      H1132   1.082       .  S
C1124      C1127   1.378       .  A
N1125      C1126   1.356       .  A
N1125      H1135   1.045       .  S
C1126      C1127   1.396       .  A
C1127      H1133   1.082       .  S
N1128      C1129   1.356       .  A
N1128      H1136   1.045       .  S
C1129      C1130   1.396       .  A
C1130      H1134   1.082       .  S
C1137      C1142   1.384       .  A
C1137      C1138   1.405       .  A
C1137      N1143   1.344       .  A
C1138      C1139   1.404       .  A
C1138      H1149   1.082       .  S
C1139      C1148   1.379       .  A
C1139      C1140   1.385       .  A
C1140      C1141   1.401       .  A
C1140      N1146   1.341       .  A
C1141      C1142   1.400       .  A
C1141      H1150   1.082       .  S
C1142      C1145   1.375       .  A
N1143      C1144   1.357       .  A
N1143      H1153   1.045       .  S
C1144      C1145   1.394       .  A
C1145      H1151   1.082       .  S
N1146      C1147   1.354       .  A
N1146      H1154   1.045       .  S
C1147      C1148   1.397       .  A
C1148      H1152   1.082       .  S
C1155      C1160   1.384       .  A
C1155      C1156   1.403       .  A
C1155      N1161   1.343       .  A
C1156      C1157   1.402       .  A
C1156      H1167   1.082       .  S
C1157      C1166   1.377       .  A
C1157      C1158   1.384       .  A
C1158      C1159   1.404       .  A
C1158      N1164   1.344       .  A
C1159      C1160   1.403       .  A
C1159      H1168   1.082       .  S
C1160      C1163   1.379       .  A
N1161      C1162   1.356       .  A
N1161      H1171   1.044       .  S
C1162      C1163   1.396       .  A
C1163      H1169   1.082       .  S
N1164      C1165   1.356       .  A
N1164      H1172   1.044       .  S
C1165      C1166   1.395       .  A
C1166      H1170   1.083       .  S
C1173      C1178   1.385       .  A
C1173      C1174   1.402       .  A
C1173      N1179   1.343       .  A
C1174      C1175   1.401       .  A
C1174      H1185   1.082       .  S
C1175      C1184   1.376       .  A
C1175      C1176   1.385       .  A
C1176      C1177   1.403       .  A
C1176      N1182   1.344       .  A
C1177      C1178   1.403       .  A
C1177      H1186   1.082       .  S
C1178      C1181   1.377       .  A
N1179      C1180   1.355       .  A
N1179      H1189   1.045       .  S
C1180      C1181   1.396       .  A
C1181      H1187   1.082       .  S
N1182      C1183   1.356       .  A
N1182      H1190   1.045       .  S
C1183      C1184   1.395       .  A
C1184      H1188   1.082       .  S
C1191      C1196   1.385       .  A
C1191      C1192   1.403       .  A
C1191      N1197   1.343       .  A
C1192      C1193   1.402       .  A
C1192      H1203   1.082       .  S
C1193      C1202   1.377       .  A
C1193      C1194   1.384       .  A
C1194      C1195   1.405       .  A
C1194      N1200   1.345       .  A
C1195      C1196   1.404       .  A
C1195      H1204   1.082       .  S
C1196      C1199   1.379       .  A
N1197      C1198   1.355       .  A
N1197      H1207   1.045       .  S
C1198      C1199   1.397       .  A
C1199      H1205   1.082       .  S
N1200      C1201   1.357       .  A
N1200      H1208   1.045       .  S
C1201      C1202   1.395       .  A
C1202      H1206   1.082       .  S
C1209      C1214   1.385       .  A
C1209      C1210   1.402       .  A
C1209      N1215   1.343       .  A
C1210      C1211   1.402       .  A
C1210      H1221   1.082       .  S
C1211      C1220   1.376       .  A
C1211      C1212   1.385       .  A
C1212      C1213   1.401       .  A
C1212      N1218   1.342       .  A
C1213      C1214   1.400       .  A
C1213      H1222   1.082       .  S
C1214      C1217   1.375       .  A
N1215      C1216   1.355       .  A
N1215      H1225   1.045       .  S
C1216      C1217   1.394       .  A
C1217      H1223   1.083       .  S
N1218      C1219   1.355       .  A
N1218      H1226   1.045       .  S
C1219      C1220   1.396       .  A
C1220      H1224   1.082       .  S
C1227      C1232   1.384       .  A
C1227      C1228   1.403   1_565  A
C1227      N1233   1.342       .  A
C1228      C1229   1.402       .  A
C1228      H1239   1.082       .  S
C1229      C1238   1.378       .  A
C1229      C1230   1.384       .  A
C1230      C1231   1.404       .  A
C1230      N1236   1.344       .  A
C1231      C1232   1.403   1_545  A
C1231      H1240   1.082       .  S
C1232      C1235   1.379       .  A
N1233      C1234   1.356       .  A
N1233      H1243   1.045       .  S
C1234      C1235   1.396       .  A
C1235      H1241   1.082       .  S
N1236      C1237   1.356       .  A
N1236      H1244   1.045       .  S
C1237      C1238   1.396       .  A
C1238      H1242   1.082       .  S
C1245      C1250   1.385       .  A
C1245      C1246   1.402       .  A
C1245      N1251   1.342       .  A
C1246      C1247   1.401       .  A
C1246      H1257   1.082       .  S
C1247      C1256   1.377       .  A
C1247      C1248   1.385       .  A
C1248      C1249   1.402       .  A
C1248      N1254   1.342       .  A
C1249      C1250   1.401       .  A
C1249      H1258   1.082       .  S
C1250      C1253   1.376       .  A
N1251      C1252   1.355       .  A
N1251      H1261   1.045       .  S
C1252      C1253   1.395       .  A
C1253      H1259   1.083       .  S
N1254      C1255   1.355       .  A
N1254      H1262   1.045       .  S
C1255      C1256   1.395       .  A
C1256      H1260   1.082       .  S
C1263      C1268   1.385       .  A
C1263      C1264   1.402       .  A
C1263      N1269   1.344       .  A
C1264      C1265   1.402       .  A
C1264      H1275   1.082       .  S
C1265      C1274   1.376       .  A
C1265      C1266   1.385       .  A
C1266      C1267   1.403       .  A
C1266      N1272   1.344       .  A
C1267      C1268   1.402       .  A
C1267      H1276   1.082       .  S
C1268      C1271   1.376       .  A
N1269      C1270   1.355       .  A
N1269      H1279   1.044       .  S
C1270      C1271   1.396       .  A
C1271      H1277   1.083       .  S
N1272      C1273   1.356       .  A
N1272      H1280   1.044       .  S
C1273      C1274   1.395       .  A
C1274      H1278   1.082       .  S
C1281      C1286   1.385       .  A
C1281      C1282   1.404   1_655  A
C1281      N1287   1.344       .  A
C1282      C1283   1.403       .  A
C1282      H1293   1.082       .  S
C1283      C1292   1.378       .  A
C1283      C1284   1.385       .  A
C1284      C1285   1.401       .  A
C1284      N1290   1.342       .  A
C1285      C1286   1.400   1_455  A
C1285      H1294   1.082       .  S
C1286      C1289   1.376       .  A
N1287      C1288   1.356       .  A
N1287      H1297   1.045       .  S
C1288      C1289   1.394       .  A
C1289      H1295   1.082       .  S
N1290      C1291   1.355       .  A
N1290      H1298   1.045       .  S
C1291      C1292   1.396       .  A
C1292      H1296   1.082       .  S
C1299      C1304   1.384       .  A
C1299      C1300   1.405       .  A
C1299      N1305   1.344       .  A
C1300      C1301   1.404       .  A
C1300      H1311   1.082       .  S
C1301      C1310   1.380       .  A
C1301      C1302   1.385       .  A
C1302      C1303   1.401       .  A
C1302      N1308   1.342       .  A
C1303      C1304   1.400       .  A
C1303      H1312   1.082       .  S
C1304      C1307   1.376       .  A
N1305      C1306   1.357       .  A
N1305      H1315   1.045       .  S
C1306      C1307   1.394       .  A
C1307      H1313   1.082       .  S
N1308      C1309   1.355       .  A
N1308      H1316   1.045       .  S
C1309      C1310   1.397       .  A
C1310      H1314   1.082       .  S
C1317      C1322   1.385       .  A
C1317      C1318   1.403       .  A
C1317      N1323   1.343       .  A
C1318      C1319   1.402       .  A
C1318      H1329   1.082       .  S
C1319      C1328   1.376       .  A
C1319      C1320   1.385       .  A
C1320      C1321   1.402       .  A
C1320      N1326   1.342       .  A
C1321      C1322   1.401       .  A
C1321      H1330   1.082       .  S
C1322      C1325   1.375       .  A
N1323      C1324   1.356       .  A
N1323      H1333   1.045       .  S
C1324      C1325   1.394       .  A
C1325      H1331   1.082       .  S
N1326      C1327   1.355       .  A
N1326      H1334   1.045       .  S
C1327      C1328   1.395       .  A
C1328      H1332   1.082       .  S
C1335      C1340   1.385       .  A
C1335      C1336   1.401       .  A
C1335      N1341   1.342       .  A
C1336      C1337   1.400   1_455  A
C1336      H1347   1.082       .  S
C1337      C1346   1.375       .  A
C1337      C1338   1.384       .  A
C1338      C1339   1.405   1_655  A
C1338      N1344   1.345       .  A
C1339      C1340   1.404       .  A
C1339      H1348   1.082       .  S
C1340      C1343   1.379       .  A
N1341      C1342   1.355       .  A
N1341      H1351   1.045       .  S
C1342      C1343   1.397       .  A
C1343      H1349   1.082       .  S
N1344      C1345   1.357       .  A
N1344      H1352   1.045       .  S
C1345      C1346   1.394       .  A
C1346      H1350   1.082       .  S
C1353      C1358   1.384       .  A
C1353      C1354   1.404   1_565  A
C1353      N1359   1.344       .  A
C1354      C1355   1.404       .  A
C1354      H1365   1.082       .  S
C1355      C1364   1.379       .  A
C1355      C1356   1.384       .  A
C1356      C1357   1.403       .  A
C1356      N1362   1.343       .  A
C1357      C1358   1.402   1_545  A
C1357      H1366   1.082       .  S
C1358      C1361   1.377       .  A
N1359      C1360   1.357       .  A
N1359      H1369   1.045       .  S
C1360      C1361   1.395       .  A
C1361      H1367   1.082       .  S
N1362      C1363   1.356       .  A
N1362      H1370   1.044       .  S
C1363      C1364   1.397       .  A
C1364      H1368   1.082       .  S
C1371      C1376   1.385       .  A
C1371      C1372   1.402       .  A
C1371      N1377   1.342       .  A
C1372      C1373   1.401       .  A
C1372      H1383   1.082       .  S
C1373      C1382   1.376       .  A
C1373      C1374   1.385       .  A
C1374      C1375   1.402       .  A
C1374      N1380   1.343       .  A
C1375      C1376   1.401       .  A
C1375      H1384   1.082       .  S
C1376      C1379   1.376       .  A
N1377      C1378   1.355       .  A
N1377      H1387   1.045       .  S
C1378      C1379   1.395       .  A
C1379      H1385   1.082       .  S
N1380      C1381   1.355       .  A
N1380      H1388   1.045       .  S
C1381      C1382   1.395       .  A
C1382      H1386   1.082       .  S
C1389      C1394   1.385       .  A
C1389      C1390   1.402       .  A
C1389      N1395   1.343       .  A
C1390      C1391   1.402       .  A
C1390      H1401   1.082       .  S
C1391      C1400   1.377       .  A
C1391      C1392   1.385       .  A
C1392      C1393   1.403       .  A
C1392      N1398   1.343       .  A
C1393      C1394   1.402       .  A
C1393      H1402   1.082       .  S
C1394      C1397   1.376       .  A
N1395      C1396   1.355       .  A
N1395      H1405   1.045       .  S
C1396      C1397   1.396       .  A
C1397      H1403   1.082       .  S
N1398      C1399   1.356       .  A
N1398      H1406   1.045       .  S
C1399      C1400   1.395       .  A
C1400      H1404   1.082       .  S
C1407      C1412   1.385       .  A
C1407      C1408   1.403       .  A
C1407      N1413   1.343       .  A
C1408      C1409   1.402       .  A
C1408      H1419   1.082       .  S
C1409      C1418   1.376       .  A
C1409      C1410   1.385       .  A
C1410      C1411   1.402       .  A
C1410      N1416   1.343       .  A
C1411      C1412   1.402       .  A
C1411      H1420   1.082       .  S
C1412      C1415   1.376       .  A
N1413      C1414   1.356       .  A
N1413      H1423   1.045       .  S
C1414      C1415   1.395       .  A
C1415      H1421   1.082       .  S
N1416      C1417   1.355       .  A
N1416      H1424   1.045       .  S
C1417      C1418   1.396       .  A
C1418      H1422   1.082       .  S
C1425      C1430   1.385       .  A
C1425      C1426   1.402   1_554  A
C1425      N1431   1.342       .  A
C1426      C1427   1.401       .  A
C1426      H1437   1.082       .  S
C1427      C1436   1.376       .  A
C1427      C1428   1.385       .  A
C1428      C1429   1.402       .  A
C1428      N1434   1.343       .  A
C1429      C1430   1.401   1_556  A
C1429      H1438   1.082       .  S
C1430      C1433   1.377       .  A
N1431      C1432   1.356       .  A
N1431      H1441   1.045       .  S
C1432      C1433   1.395       .  A
C1433      H1439   1.082       .  S
N1434      C1435   1.355       .  A
N1434      H1442   1.045       .  S
C1435      C1436   1.395       .  A
C1436      H1440   1.083       .  S
C1443      C1448   1.385       .  A
C1443      C1444   1.403       .  A
C1443      N1449   1.343       .  A
C1444      C1445   1.402   1_556  A
C1444      H1455   1.082       .  S
C1445      C1454   1.377       .  A
C1445      C1446   1.385       .  A
C1446      C1447   1.402   1_554  A
C1446      N1452   1.342       .  A
C1447      C1448   1.401       .  A
C1447      H1456   1.082       .  S
C1448      C1451   1.375       .  A
N1449      C1450   1.355       .  A
N1449      H1459   1.045       .  S
C1450      C1451   1.394       .  A
C1451      H1457   1.083       .  S
N1452      C1453   1.355       .  A
N1452      H1460   1.045       .  S
C1453      C1454   1.395       .  A
C1454      H1458   1.082       .  S
C1461      C1466   1.384       .  A
C1461      C1462   1.404       .  A
C1461      N1467   1.345       .  A
C1462      C1463   1.404       .  A
C1462      H1473   1.082       .  S
C1463      C1472   1.378       .  A
C1463      C1464   1.384       .  A
C1464      C1465   1.404       .  A
C1464      N1470   1.345       .  A
C1465      C1466   1.403       .  A
C1465      H1474   1.082       .  S
C1466      C1469   1.377       .  A
N1467      C1468   1.356       .  A
N1467      H1477   1.045       .  S
C1468      C1469   1.396       .  A
C1469      H1475   1.082       .  S
N1470      C1471   1.356       .  A
N1470      H1478   1.045       .  S
C1471      C1472   1.396       .  A
C1472      H1476   1.082       .  S
C1479      C1484   1.384       .  A
C1479      C1480   1.404       .  A
C1479      N1485   1.343       .  A
C1480      C1481   1.403       .  A
C1480      H1491   1.082       .  S
C1481      C1490   1.379       .  A
C1481      C1482   1.384       .  A
C1482      C1483   1.403       .  A
C1482      N1488   1.342       .  A
C1483      C1484   1.401       .  A
C1483      H1492   1.082       .  S
C1484      C1487   1.377       .  A
N1485      C1486   1.356       .  A
N1485      H1495   1.045       .  S
C1486      C1487   1.395       .  A
C1487      H1493   1.082       .  S
N1488      C1489   1.355       .  A
N1488      H1496   1.045       .  S
C1489      C1490   1.396       .  A
C1490      H1494   1.082       .  S
C1497      C1502   1.385       .  A
C1497      C1498   1.402       .  A
C1497      N1503   1.342       .  A
C1498      C1499   1.401       .  A
C1498      H1509   1.082       .  S
C1499      C1508   1.377       .  A
C1499      C1500   1.385       .  A
C1500      C1501   1.403       .  A
C1500      N1506   1.342       .  A
C1501      C1502   1.402       .  A
C1501      H1510   1.082       .  S
C1502      C1505   1.377       .  A
N1503      C1504   1.355       .  A
N1503      H1513   1.045       .  S
C1504      C1505   1.395       .  A
C1505      H1511   1.082       .  S
N1506      C1507   1.356       .  A
N1506      H1514   1.045       .  S
C1507      C1508   1.395       .  A
C1508      H1512   1.082       .  S
C1515      C1520   1.385       .  A
C1515      C1516   1.403       .  A
C1515      N1521   1.343       .  A
C1516      C1517   1.402       .  A
C1516      H1527   1.082       .  S
C1517      C1526   1.377       .  A
C1517      C1518   1.385       .  A
C1518      C1519   1.401       .  A
C1518      N1524   1.342       .  A
C1519      C1520   1.400       .  A
C1519      H1528   1.082       .  S
C1520      C1523   1.375       .  A
N1521      C1522   1.356       .  A
N1521      H1531   1.045       .  S
C1522      C1523   1.394       .  A
C1523      H1529   1.082       .  S
N1524      C1525   1.355       .  A
N1524      H1532   1.045       .  S
C1525      C1526   1.396       .  A
C1526      H1530   1.082       .  S
C1533      C1538   1.384       .  A
C1533      C1534   1.404       .  A
C1533      N1539   1.344       .  A
C1534      C1535   1.403       .  A
C1534      H1545   1.082       .  S
C1535      C1544   1.378       .  A
C1535      C1536   1.384       .  A
C1536      C1537   1.404       .  A
C1536      N1542   1.344       .  A
C1537      C1538   1.403       .  A
C1537      H1546   1.082       .  S
C1538      C1541   1.379       .  A
N1539      C1540   1.356       .  A
N1539      H1549   1.045       .  S
C1540      C1541   1.397       .  A
C1541      H1547   1.082       .  S
N1542      C1543   1.356       .  A
N1542      H1550   1.045       .  S
C1543      C1544   1.396       .  A
C1544      H1548   1.082       .  S
C1551      C1556   1.385       .  A
C1551      C1552   1.402       .  A
C1551      N1557   1.341       .  A
C1552      C1553   1.400       .  A
C1552      H1563   1.082       .  S
C1553      C1562   1.376       .  A
C1553      C1554   1.385       .  A
C1554      C1555   1.404       .  A
C1554      N1560   1.343       .  A
C1555      C1556   1.403       .  A
C1555      H1564   1.082       .  S
C1556      C1559   1.379       .  A
N1557      C1558   1.355       .  A
N1557      H1567   1.045       .  S
C1558      C1559   1.396       .  A
C1559      H1565   1.082       .  S
N1560      C1561   1.356       .  A
N1560      H1568   1.045       .  S
C1561      C1562   1.394       .  A
C1562      H1566   1.082       .  S
C1569      C1574   1.385       .  A
C1569      C1570   1.400       .  A
C1569      N1575   1.341       .  A
C1570      C1571   1.399       .  A
C1570      H1581   1.082       .  S
C1571      C1580   1.374       .  A
C1571      C1572   1.385       .  A
C1572      C1573   1.401       .  A
C1572      N1578   1.341       .  A
C1573      C1574   1.400       .  A
C1573      H1582   1.082       .  S
C1574      C1577   1.374       .  A
N1575      C1576   1.354       .  A
N1575      H1585   1.045       .  S
C1576      C1577   1.394       .  A
C1577      H1583   1.082       .  S
N1578      C1579   1.355       .  A
N1578      H1586   1.045       .  S
C1579      C1580   1.393       .  A
C1580      H1584   1.082       .  S
C1587      C1592   1.385       .  A
C1587      C1588   1.402       .  A
C1587      N1593   1.342       .  A
C1588      C1589   1.401       .  A
C1588      H1599   1.082       .  S
C1589      C1598   1.377       .  A
C1589      C1590   1.385       .  A
C1590      C1591   1.403       .  A
C1590      N1596   1.343       .  A
C1591      C1592   1.402       .  A
C1591      H1600   1.082       .  S
C1592      C1595   1.378       .  A
N1593      C1594   1.355       .  A
N1593      H1603   1.045       .  S
C1594      C1595   1.395       .  A
C1595      H1601   1.082       .  S
N1596      C1597   1.356       .  A
N1596      H1604   1.045       .  S
C1597      C1598   1.395       .  A
C1598      H1602   1.082       .  S
C1605      C1610   1.385       .  A
C1605      C1606   1.402       .  A
C1605      N1611   1.343       .  A
C1606      C1607   1.402       .  A
C1606      H1617   1.082       .  S
C1607      C1616   1.376       .  A
C1607      C1608   1.385       .  A
C1608      C1609   1.402       .  A
C1608      N1614   1.343       .  A
C1609      C1610   1.401       .  A
C1609      H1618   1.082       .  S
C1610      C1613   1.375       .  A
N1611      C1612   1.356       .  A
N1611      H1621   1.044       .  S
C1612      C1613   1.395       .  A
C1613      H1619   1.083       .  S
N1614      C1615   1.355       .  A
N1614      H1622   1.044       .  S
C1615      C1616   1.395       .  A
C1616      H1620   1.082       .  S
C1623      C1628   1.384       .  A
C1623      C1624   1.403       .  A
C1623      N1629   1.343       .  A
C1624      C1625   1.402       .  A
C1624      H1635   1.082       .  S
C1625      C1634   1.378       .  A
C1625      C1626   1.384       .  A
C1626      C1627   1.405       .  A
C1626      N1632   1.345       .  A
C1627      C1628   1.404       .  A
C1627      H1636   1.082       .  S
C1628      C1631   1.380       .  A
N1629      C1630   1.356       .  A
N1629      H1639   1.045       .  S
C1630      C1631   1.397       .  A
C1631      H1637   1.082       .  S
N1632      C1633   1.357       .  A
N1632      H1640   1.045       .  S
C1633      C1634   1.396       .  A
C1634      H1638   1.082       .  S
C1641      C1646   1.384       .  A
C1641      C1642   1.404       .  A
C1641      N1647   1.344       .  A
C1642      C1643   1.403       .  A
C1642      H1653   1.082       .  S
C1643      C1652   1.379       .  A
C1643      C1644   1.384       .  A
C1644      C1645   1.403       .  A
C1644      N1650   1.343       .  A
C1645      C1646   1.402       .  A
C1645      H1654   1.082       .  S
C1646      C1649   1.377       .  A
N1647      C1648   1.356       .  A
N1647      H1657   1.045       .  S
C1648      C1649   1.395       .  A
C1649      H1655   1.082       .  S
N1650      C1651   1.356       .  A
N1650      H1658   1.045       .  S
C1651      C1652   1.396       .  A
C1652      H1656   1.082       .  S
C1659      C1664   1.384       .  A
C1659      C1660   1.404       .  A
C1659      N1665   1.344       .  A
C1660      C1661   1.403   1_556  A
C1660      H1671   1.082       .  S
C1661      C1670   1.378       .  A
C1661      C1662   1.384       .  A
C1662      C1663   1.404   1_554  A
C1662      N1668   1.344       .  A
C1663      C1664   1.403       .  A
C1663      H1672   1.082       .  S
C1664      C1667   1.378       .  A
N1665      C1666   1.356       .  A
N1665      H1675   1.044       .  S
C1666      C1667   1.397       .  A
C1667      H1673   1.082       .  S
N1668      C1669   1.356       .  A
N1668      H1676   1.045       .  S
C1669      C1670   1.396       .  A
C1670      H1674   1.082       .  S
C1677      C1682   1.385       .  A
C1677      C1678   1.403       .  A
C1677      N1683   1.343       .  A
C1678      C1679   1.402       .  A
C1678      H1689   1.082       .  S
C1679      C1688   1.378       .  A
C1679      C1680   1.385       .  A
C1680      C1681   1.403       .  A
C1680      N1686   1.342       .  A
C1681      C1682   1.402       .  A
C1681      H1690   1.082       .  S
C1682      C1685   1.377       .  A
N1683      C1684   1.355       .  A
N1683      H1693   1.045       .  S
C1684      C1685   1.396       .  A
C1685      H1691   1.082       .  S
N1686      C1687   1.356       .  A
N1686      H1694   1.045       .  S
C1687      C1688   1.395       .  A
C1688      H1692   1.082       .  S
C1695      C1700   1.384       .  A
C1695      C1696   1.404   1_565  A
C1695      N1701   1.344       .  A
C1696      C1697   1.403       .  A
C1696      H1707   1.082   1_545  S
C1697      C1706   1.378       .  A
C1697      C1698   1.384       .  A
C1698      C1699   1.404       .  A
C1698      N1704   1.344       .  A
C1699      C1700   1.403   1_545  A
C1699      H1708   1.082       .  S
C1700      C1703   1.378       .  A
N1701      C1702   1.356       .  A
N1701      H1711   1.044       .  S
C1702      C1703   1.396       .  A
C1703      H1709   1.082       .  S
N1704      C1705   1.356       .  A
N1704      H1712   1.044       .  S
C1705      C1706   1.396       .  A
C1706      H1710   1.082       .  S
C1713      C1718   1.385       .  A
C1713      C1714   1.402       .  A
C1713      N1719   1.343       .  A
C1714      C1715   1.402   1_556  A
C1714      H1725   1.082       .  S
C1715      C1724   1.376       .  A
C1715      C1716   1.385       .  A
C1716      C1717   1.402   1_554  A
C1716      N1722   1.342       .  A
C1717      C1718   1.401       .  A
C1717      H1726   1.083       .  S
C1718      C1721   1.375       .  A
N1719      C1720   1.355       .  A
N1719      H1729   1.045       .  S
C1720      C1721   1.395       .  A
C1721      H1727   1.082       .  S
N1722      C1723   1.355       .  A
N1722      H1730   1.045       .  S
C1723      C1724   1.395       .  A
C1724      H1728   1.082       .  S
C1731      C1736   1.385       .  A
C1731      C1732   1.402       .  A
C1731      N1737   1.343       .  A
C1732      C1733   1.401       .  A
C1732      H1743   1.082       .  S
C1733      C1742   1.375       .  A
C1733      C1734   1.385       .  A
C1734      C1735   1.404       .  A
C1734      N1740   1.345       .  A
C1735      C1736   1.404       .  A
C1735      H1744   1.082       .  S
C1736      C1739   1.379       .  A
N1737      C1738   1.355       .  A
N1737      H1747   1.045       .  S
C1738      C1739   1.397       .  A
C1739      H1745   1.082       .  S
N1740      C1741   1.356       .  A
N1740      H1748   1.045       .  S
C1741      C1742   1.394       .  A
C1742      H1746   1.082       .  S
C1749      C1754   1.385       .  A
C1749      C1750   1.401       .  A
C1749      N1755   1.342       .  A
C1750      C1751   1.400       .  A
C1750      H1761   1.082       .  S
C1751      C1760   1.374       .  A
C1751      C1752   1.385       .  A
C1752      C1753   1.404       .  A
C1752      N1758   1.345       .  A
C1753      C1754   1.404       .  A
C1753      H1762   1.082       .  S
C1754      C1757   1.378       .  A
N1755      C1756   1.354       .  A
N1755      H1765   1.045       .  S
C1756      C1757   1.397       .  A
C1757      H1763   1.082       .  S
N1758      C1759   1.357       .  A
N1758      H1766   1.045       .  S
C1759      C1760   1.394       .  A
C1760      H1764   1.082       .  S
C1767      C1772   1.385       .  A
C1767      C1768   1.403       .  A
C1767      N1773   1.343       .  A
C1768      C1769   1.402       .  A
C1768      H1779   1.082       .  S
C1769      C1778   1.378       .  A
C1769      C1770   1.385       .  A
C1770      C1771   1.401       .  A
C1770      N1776   1.341       .  A
C1771      C1772   1.400       .  A
C1771      H1780   1.083       .  S
C1772      C1775   1.375       .  A
N1773      C1774   1.356       .  A
N1773      H1783   1.045       .  S
C1774      C1775   1.394       .  A
C1775      H1781   1.083       .  S
N1776      C1777   1.355       .  A
N1776      H1784   1.045       .  S
C1777      C1778   1.395       .  A
C1778      H1782   1.082       .  S
C1785      C1790   1.384       .  A
C1785      C1786   1.405   1_565  A
C1785      N1791   1.345       .  A
C1786      C1787   1.404       .  A
C1786      H1797   1.082       .  S
C1787      C1796   1.380       .  A
C1787      C1788   1.384       .  A
C1788      C1789   1.402       .  A
C1788      N1794   1.343       .  A
C1789      C1790   1.402   1_545  A
C1789      H1798   1.082       .  S
C1790      C1793   1.377       .  A
N1791      C1792   1.357       .  A
N1791      H1801   1.045       .  S
C1792      C1793   1.395       .  A
C1793      H1799   1.082       .  S
N1794      C1795   1.355       .  A
N1794      H1802   1.045       .  S
C1795      C1796   1.397       .  A
C1796      H1800   1.082       .  S
C1803      C1808   1.385       .  A
C1803      C1804   1.403       .  A
C1803      N1809   1.343       .  A
C1804      C1805   1.402       .  A
C1804      H1815   1.082       .  S
C1805      C1814   1.377       .  A
C1805      C1806   1.385       .  A
C1806      C1807   1.402       .  A
C1806      N1812   1.343       .  A
C1807      C1808   1.401       .  A
C1807      H1816   1.082       .  S
C1808      C1811   1.376       .  A
N1809      C1810   1.356       .  A
N1809      H1819   1.045       .  S
C1810      C1811   1.395       .  A
C1811      H1817   1.082       .  S
N1812      C1813   1.355       .  A
N1812      H1820   1.045       .  S
C1813      C1814   1.395       .  A
C1814      H1818   1.082       .  S
C1821      C1826   1.384       .  A
C1821      C1822   1.404       .  A
C1821      N1827   1.344       .  A
C1822      C1823   1.403       .  A
C1822      H1833   1.082       .  S
C1823      C1832   1.378       .  A
C1823      C1824   1.384       .  A
C1824      C1825   1.404       .  A
C1824      N1830   1.344       .  A
C1825      C1826   1.403       .  A
C1825      H1834   1.082       .  S
C1826      C1829   1.378       .  A
N1827      C1828   1.356       .  A
N1827      H1837   1.045       .  S
C1828      C1829   1.396       .  A
C1829      H1835   1.082       .  S
N1830      C1831   1.356       .  A
N1830      H1838   1.045       .  S
C1831      C1832   1.396       .  A
C1832      H1836   1.082       .  S
C1839      C1844   1.384       .  A
C1839      C1840   1.403       .  A
C1839      N1845   1.342       .  A
C1840      C1841   1.402       .  A
C1840      H1851   1.082       .  S
C1841      C1850   1.378       .  A
C1841      C1842   1.384       .  A
C1842      C1843   1.404       .  A
C1842      N1848   1.344       .  A
C1843      C1844   1.403       .  A
C1843      H1852   1.082       .  S
C1844      C1847   1.380       .  A
N1845      C1846   1.355       .  A
N1845      H1855   1.045       .  S
C1846      C1847   1.396       .  A
C1847      H1853   1.082       .  S
N1848      C1849   1.356       .  A
N1848      H1856   1.045       .  S
C1849      C1850   1.395       .  A
C1850      H1854   1.082       .  S
C1857      C1862   1.384       .  A
C1857      C1858   1.403       .  A
C1857      N1863   1.343       .  A
C1858      C1859   1.402       .  A
C1858      H1869   1.082       .  S
C1859      C1868   1.377       .  A
C1859      C1860   1.385       .  A
C1860      C1861   1.403       .  A
C1860      N1866   1.343       .  A
C1861      C1862   1.402       .  A
C1861      H1870   1.082       .  S
C1862      C1865   1.377       .  A
N1863      C1864   1.356       .  A
N1863      H1873   1.045       .  S
C1864      C1865   1.395       .  A
C1865      H1871   1.082       .  S
N1866      C1867   1.355       .  A
N1866      H1874   1.045       .  S
C1867      C1868   1.396       .  A
C1868      H1872   1.083       .  S
C1875      C1880   1.384       .  A
C1875      C1876   1.404       .  A
C1875      N1881   1.344       .  A
C1876      C1877   1.403       .  A
C1876      H1887   1.082       .  S
C1877      C1886   1.379       .  A
C1877      C1878   1.384       .  A
C1878      C1879   1.402       .  A
C1878      N1884   1.342       .  A
C1879      C1880   1.401       .  A
C1879      H1888   1.082       .  S
C1880      C1883   1.377       .  A
N1881      C1882   1.356       .  A
N1881      H1891   1.044       .  S
C1882      C1883   1.395       .  A
C1883      H1889   1.083       .  S
N1884      C1885   1.355       .  A
N1884      H1892   1.045       .  S
C1885      C1886   1.396       .  A
C1886      H1890   1.082       .  S
C1893      C1898   1.385       .  A
C1893      C1894   1.403       .  A
C1893      N1899   1.342       .  A
C1894      C1895   1.402       .  A
C1894      H1905   1.082       .  S
C1895      C1904   1.377       .  A
C1895      C1896   1.385       .  A
C1896      C1897   1.402       .  A
C1896      N1902   1.342       .  A
C1897      C1898   1.401       .  A
C1897      H1906   1.082       .  S
C1898      C1901   1.376       .  A
N1899      C1900   1.355       .  A
N1899      H1909   1.045       .  S
C1900      C1901   1.395       .  A
C1901      H1907   1.082       .  S
N1902      C1903   1.355       .  A
N1902      H1910   1.045       .  S
C1903      C1904   1.395       .  A
C1904      H1908   1.082       .  S
C1911      C1916   1.384       .  A
C1911      C1912   1.405       .  A
C1911      N1917   1.344       .  A
C1912      C1913   1.404   1_556  A
C1912      H1923   1.082       .  S
C1913      C1922   1.379       .  A
C1913      C1914   1.384       .  A
C1914      C1915   1.403   1_554  A
C1914      N1920   1.343       .  A
C1915      C1916   1.402       .  A
C1915      H1924   1.082       .  S
C1916      C1919   1.378       .  A
N1917      C1918   1.357       .  A
N1917      H1927   1.044       .  S
C1918      C1919   1.395       .  A
C1919      H1925   1.082       .  S
N1920      C1921   1.356       .  A
N1920      H1928   1.044       .  S
C1921      C1922   1.397       .  A
C1922      H1926   1.082       .  S
C1929      C1934   1.384       .  A
C1929      C1930   1.403       .  A
C1929      N1935   1.344       .  A
C1930      C1931   1.403       .  A
C1930      H1941   1.082       .  S
C1931      C1940   1.377       .  A
C1931      C1932   1.385       .  A
C1932      C1933   1.403       .  A
C1932      N1938   1.344       .  A
C1933      C1934   1.403       .  A
C1933      H1942   1.082       .  S
C1934      C1937   1.377       .  A
N1935      C1936   1.356       .  A
N1935      H1945   1.044       .  S
C1936      C1937   1.396       .  A
C1937      H1943   1.082       .  S
N1938      C1939   1.356       .  A
N1938      H1946   1.044       .  S
C1939      C1940   1.396       .  A
C1940      H1944   1.083       .  S
C1947      C1952   1.384       .  A
C1947      C1948   1.403       .  A
C1947      N1953   1.343       .  A
C1948      C1949   1.403   1_455  A
C1948      H1959   1.082       .  S
C1949      C1958   1.377       .  A
C1949      C1950   1.385       .  A
C1950      C1951   1.404   1_655  A
C1950      N1956   1.344       .  A
C1951      C1952   1.403       .  A
C1951      H1960   1.082       .  S
C1952      C1955   1.378       .  A
N1953      C1954   1.356       .  A
N1953      H1963   1.044       .  S
C1954      C1955   1.396       .  A
C1955      H1961   1.082       .  S
N1956      C1957   1.356       .  A
N1956      H1964   1.044       .  S
C1957      C1958   1.396       .  A
C1958      H1962   1.083       .  S
C1965      C1970   1.385       .  A
C1965      C1966   1.403       .  A
C1965      N1971   1.343       .  A
C1966      C1967   1.402   1_556  A
C1966      H1977   1.082       .  S
C1967      C1976   1.377       .  A
C1967      C1968   1.385       .  A
C1968      C1969   1.403   1_554  A
C1968      N1974   1.344       .  A
C1969      C1970   1.403       .  A
C1969      H1978   1.082       .  S
C1970      C1973   1.378       .  A
N1971      C1972   1.356       .  A
N1971      H1981   1.044       .  S
C1972      C1973   1.395       .  A
C1973      H1979   1.082       .  S
N1974      C1975   1.356       .  A
N1974      H1982   1.044       .  S
C1975      C1976   1.395       .  A
C1976      H1980   1.082       .  S
C1983      C1988   1.385       .  A
C1983      C1984   1.402       .  A
C1983      N1989   1.343       .  A
C1984      C1985   1.401       .  A
C1984      H1995   1.082       .  S
C1985      C1994   1.376       .  A
C1985      C1986   1.385       .  A
C1986      C1987   1.401       .  A
C1986      N1992   1.342       .  A
C1987      C1988   1.401       .  A
C1987      H1996   1.082       .  S
C1988      C1991   1.375       .  A
N1989      C1990   1.355       .  A
N1989      H1999   1.045       .  S
C1990      C1991   1.395       .  A
C1991      H1997   1.082       .  S
N1992      C1993   1.355       .  A
N1992      H2000   1.045       .  S
C1993      C1994   1.395       .  A
C1994      H1998   1.082       .  S
C2001      C2006   1.385       .  A
C2001      C2002   1.403       .  A
C2001      N2007   1.343       .  A
C2002      C2003   1.402       .  A
C2002      H2013   1.082       .  S
C2003      C2012   1.376       .  A
C2003      C2004   1.385       .  A
C2004      C2005   1.402       .  A
C2004      N2010   1.343       .  A
C2005      C2006   1.402       .  A
C2005      H2014   1.082       .  S
C2006      C2009   1.376       .  A
N2007      C2008   1.356       .  A
N2007      H2017   1.045       .  S
C2008      C2009   1.395       .  A
C2009      H2015   1.082       .  S
N2010      C2011   1.355       .  A
N2010      H2018   1.045       .  S
C2011      C2012   1.395       .  A
C2012      H2016   1.082       .  S
C2019      C2024   1.384       .  A
C2019      C2020   1.406       .  A
C2019      N2025   1.346       .  A
C2020      C2021   1.405       .  A
C2020      H2031   1.082       .  S
C2021      C2030   1.380       .  A
C2021      C2022   1.384       .  A
C2022      C2023   1.403       .  A
C2022      N2028   1.344       .  A
C2023      C2024   1.403       .  A
C2023      H2032   1.082       .  S
C2024      C2027   1.377       .  A
N2025      C2026   1.357       .  A
N2025      H2035   1.044       .  S
C2026      C2027   1.396       .  A
C2027      H2033   1.082       .  S
N2028      C2029   1.356       .  A
N2028      H2036   1.045       .  S
C2029      C2030   1.397       .  A
C2030      H2034   1.082       .  S
C2037      C2042   1.384       .  A
C2037      C2038   1.404   1_655  A
C2037      N2043   1.344       .  A
C2038      C2039   1.403       .  A
C2038      H2049   1.083       .  S
C2039      C2048   1.377       .  A
C2039      C2040   1.385       .  A
C2040      C2041   1.403       .  A
C2040      N2046   1.344       .  A
C2041      C2042   1.402   1_455  A
C2041      H2050   1.082       .  S
C2042      C2045   1.377       .  A
N2043      C2044   1.357       .  A
N2043      H2053   1.045       .  S
C2044      C2045   1.395       .  A
C2045      H2051   1.082       .  S
N2046      C2047   1.355       .  A
N2046      H2054   1.045       .  S
C2047      C2048   1.396       .  A
C2048      H2052   1.083       .  S
C2055      C2060   1.384       .  A
C2055      C2056   1.404       .  A
C2055      N2061   1.345       .  A
C2056      C2057   1.404       .  A
C2056      H2067   1.082       .  S
C2057      C2066   1.379       .  A
C2057      C2058   1.384       .  A
C2058      C2059   1.403       .  A
C2058      N2064   1.343       .  A
C2059      C2060   1.402       .  A
C2059      H2068   1.082       .  S
C2060      C2063   1.377       .  A
N2061      C2062   1.356       .  A
N2061      H2071   1.045       .  S
C2062      C2063   1.396       .  A
C2063      H2069   1.082       .  S
N2064      C2065   1.356       .  A
N2064      H2072   1.045       .  S
C2065      C2066   1.396       .  A
C2066      H2070   1.082       .  S
C2073      C2078   1.385       .  A
C2073      C2074   1.404       .  A
C2073      N2079   1.344       .  A
C2074      C2075   1.403       .  A
C2074      H2085   1.082       .  S
C2075      C2084   1.378       .  A
C2075      C2076   1.385       .  A
C2076      C2077   1.401       .  A
C2076      N2082   1.342       .  A
C2077      C2078   1.401       .  A
C2077      H2086   1.082       .  S
C2078      C2081   1.376       .  A
N2079      C2080   1.356       .  A
N2079      H2089   1.045       .  S
C2080      C2081   1.394       .  A
C2081      H2087   1.082       .  S
N2082      C2083   1.355       .  A
N2082      H2090   1.045       .  S
C2083      C2084   1.396       .  A
C2084      H2088   1.082       .  S
C2091      C2096   1.385       .  A
C2091      C2092   1.401       .  A
C2091      N2097   1.342       .  A
C2092      C2093   1.400       .  A
C2092      H2103   1.082       .  S
C2093      C2102   1.375       .  A
C2093      C2094   1.384       .  A
C2094      C2095   1.405       .  A
C2094      N2100   1.344       .  A
C2095      C2096   1.404       .  A
C2095      H2104   1.082       .  S
C2096      C2099   1.379       .  A
N2097      C2098   1.354       .  A
N2097      H2107   1.044       .  S
C2098      C2099   1.397       .  A
C2099      H2105   1.083       .  S
N2100      C2101   1.357       .  A
N2100      H2108   1.045       .  S
C2101      C2102   1.394       .  A
C2102      H2106   1.082       .  S
C2109      C2114   1.385       .  A
C2109      C2110   1.401       .  A
C2109      N2115   1.342       .  A
C2110      C2111   1.400       .  A
C2110      H2121   1.082       .  S
C2111      C2120   1.375       .  A
C2111      C2112   1.384       .  A
C2112      C2113   1.404       .  A
C2112      N2118   1.344       .  A
C2113      C2114   1.404       .  A
C2113      H2122   1.082       .  S
C2114      C2117   1.378       .  A
N2115      C2116   1.355       .  A
N2115      H2125   1.045       .  S
C2116      C2117   1.396       .  A
C2117      H2123   1.082       .  S
N2118      C2119   1.357       .  A
N2118      H2126   1.045       .  S
C2119      C2120   1.394       .  A
C2120      H2124   1.082       .  S
C2127      C2132   1.384       .  A
C2127      C2128   1.404       .  A
C2127      N2133   1.344       .  A
C2128      C2129   1.403       .  A
C2128      H2139   1.082       .  S
C2129      C2138   1.378       .  A
C2129      C2130   1.384       .  A
C2130      C2131   1.405       .  A
C2130      N2136   1.345       .  A
C2131      C2132   1.404       .  A
C2131      H2140   1.082       .  S
C2132      C2135   1.379       .  A
N2133      C2134   1.356       .  A
N2133      H2143   1.045       .  S
C2134      C2135   1.397       .  A
C2135      H2141   1.082       .  S
N2136      C2137   1.357       .  A
N2136      H2144   1.045       .  S
C2137      C2138   1.396       .  A
C2138      H2142   1.083       .  S
C2145      C2150   1.385       .  A
C2145      C2146   1.401       .  A
C2145      N2151   1.341       .  A
C2146      C2147   1.400       .  A
C2146      H2157   1.082       .  S
C2147      C2156   1.376       .  A
C2147      C2148   1.385       .  A
C2148      C2149   1.403       .  A
C2148      N2154   1.342       .  A
C2149      C2150   1.402       .  A
C2149      H2158   1.082       .  S
C2150      C2153   1.377       .  A
N2151      C2152   1.355       .  A
N2151      H2161   1.045       .  S
C2152      C2153   1.395       .  A
C2153      H2159   1.082       .  S
N2154      C2155   1.356       .  A
N2154      H2162   1.045       .  S
C2155      C2156   1.394       .  A
C2156      H2160   1.082       .  S
C2163      C2168   1.384       .  A
C2163      C2164   1.405       .  A
C2163      N2169   1.344       .  A
C2164      C2165   1.404       .  A
C2164      H2175   1.082       .  S
C2165      C2174   1.380       .  A
C2165      C2166   1.384       .  A
C2166      C2167   1.402       .  A
C2166      N2172   1.342       .  A
C2167      C2168   1.401       .  A
C2167      H2176   1.082       .  S
C2168      C2171   1.377       .  A
N2169      C2170   1.357       .  A
N2169      H2179   1.045       .  S
C2170      C2171   1.395       .  A
C2171      H2177   1.082       .  S
N2172      C2173   1.356       .  A
N2172      H2180   1.045       .  S
C2173      C2174   1.397       .  A
C2174      H2178   1.082       .  S
C2181      C2186   1.385       .  A
C2181      C2182   1.401   1_655  A
C2181      N2187   1.341       .  A
C2182      C2183   1.400       .  A
C2182      H2193   1.082   1_455  S
C2183      C2192   1.375       .  A
C2183      C2184   1.385       .  A
C2184      C2185   1.402       .  A
C2184      N2190   1.342       .  A
C2185      C2186   1.401   1_455  A
C2185      H2194   1.082       .  S
C2186      C2189   1.376       .  A
N2187      C2188   1.355       .  A
N2187      H2197   1.045       .  S
C2188      C2189   1.395       .  A
C2189      H2195   1.082       .  S
N2190      C2191   1.355       .  A
N2190      H2198   1.045       .  S
C2191      C2192   1.395       .  A
C2192      H2196   1.083       .  S
C2199      C2204   1.384       .  A
C2199      C2200   1.404       .  A
C2199      N2205   1.344       .  A
C2200      C2201   1.403   1_556  A
C2200      H2211   1.082       .  S
C2201      C2210   1.379       .  A
C2201      C2202   1.384       .  A
C2202      C2203   1.402   1_554  A
C2202      N2208   1.342       .  A
C2203      C2204   1.401       .  A
C2203      H2212   1.082       .  S
C2204      C2207   1.377       .  A
N2205      C2206   1.356       .  A
N2205      H2215   1.045       .  S
C2206      C2207   1.395       .  A
C2207      H2213   1.082       .  S
N2208      C2209   1.356       .  A
N2208      H2216   1.045       .  S
C2209      C2210   1.396       .  A
C2210      H2214   1.082       .  S
C2217      C2222   1.385       .  A
C2217      C2218   1.402       .  A
C2217      N2223   1.342       .  A
C2218      C2219   1.401       .  A
C2218      H2229   1.082       .  S
C2219      C2228   1.377       .  A
C2219      C2220   1.385       .  A
C2220      C2221   1.402       .  A
C2220      N2226   1.341       .  A
C2221      C2222   1.401       .  A
C2221      H2230   1.082       .  S
C2222      C2225   1.376       .  A
N2223      C2224   1.355       .  A
N2223      H2233   1.045       .  S
C2224      C2225   1.395       .  A
C2225      H2231   1.082       .  S
N2226      C2227   1.355       .  A
N2226      H2234   1.045       .  S
C2227      C2228   1.395       .  A
C2228      H2232   1.082       .  S
C2235      C2240   1.384       .  A
C2235      C2236   1.404       .  A
C2235      N2241   1.343       .  A
C2236      C2237   1.403       .  A
C2236      H2247   1.082       .  S
C2237      C2246   1.380       .  A
C2237      C2238   1.384       .  A
C2238      C2239   1.405       .  A
C2238      N2244   1.344       .  A
C2239      C2240   1.403       .  A
C2239      H2248   1.082       .  S
C2240      C2243   1.380       .  A
N2241      C2242   1.356       .  A
N2241      H2251   1.045       .  S
C2242      C2243   1.396       .  A
C2243      H2249   1.082       .  S
N2244      C2245   1.357       .  A
N2244      H2252   1.045       .  S
C2245      C2246   1.396       .  A
C2246      H2250   1.082       .  S
C2253      C2258   1.385       .  A
C2253      C2254   1.403   1_565  A
C2253      N2259   1.343       .  A
C2254      C2255   1.402       .  A
C2254      H2265   1.082       .  S
C2255      C2264   1.377       .  A
C2255      C2256   1.385       .  A
C2256      C2257   1.402       .  A
C2256      N2262   1.343       .  A
C2257      C2258   1.402   1_545  A
C2257      H2266   1.082       .  S
C2258      C2261   1.377       .  A
N2259      C2260   1.356       .  A
N2259      H2269   1.045       .  S
C2260      C2261   1.395       .  A
C2261      H2267   1.082       .  S
N2262      C2263   1.355       .  A
N2262      H2270   1.045       .  S
C2263      C2264   1.396       .  A
C2264      H2268   1.083       .  S
C2271      C2276   1.384       .  A
C2271      C2272   1.404   1_554  A
C2271      N2277   1.345       .  A
C2272      C2273   1.404       .  A
C2272      H2283   1.082       .  S
C2273      C2282   1.378       .  A
C2273      C2274   1.384       .  A
C2274      C2275   1.404       .  A
C2274      N2280   1.345       .  A
C2275      C2276   1.404   1_556  A
C2275      H2284   1.082       .  S
C2276      C2279   1.379       .  A
N2277      C2278   1.357       .  A
N2277      H2287   1.045       .  S
C2278      C2279   1.396       .  A
C2279      H2285   1.082       .  S
N2280      C2281   1.357       .  A
N2280      H2288   1.045       .  S
C2281      C2282   1.397       .  A
C2282      H2286   1.082       .  S
C2289      C2294   1.385       .  A
C2289      C2290   1.401       .  A
C2289      N2295   1.343       .  A
C2290      C2291   1.401       .  A
C2290      H2301   1.082       .  S
C2291      C2300   1.375       .  A
C2291      C2292   1.385       .  A
C2292      C2293   1.403       .  A
C2292      N2298   1.344       .  A
C2293      C2294   1.403       .  A
C2293      H2302   1.082       .  S
C2294      C2297   1.377       .  A
N2295      C2296   1.355       .  A
N2295      H2305   1.045       .  S
C2296      C2297   1.396       .  A
C2297      H2303   1.082       .  S
N2298      C2299   1.356       .  A
N2298      H2306   1.045       .  S
C2299      C2300   1.394       .  A
C2300      H2304   1.082       .  S
C2307      C2312   1.385       .  A
C2307      C2308   1.401       .  A
C2307      N2313   1.342       .  A
C2308      C2309   1.401       .  A
C2308      H2319   1.082       .  S
C2309      C2318   1.375       .  A
C2309      C2310   1.385       .  A
C2310      C2311   1.402       .  A
C2310      N2316   1.342       .  A
C2311      C2312   1.401       .  A
C2311      H2320   1.082       .  S
C2312      C2315   1.376       .  A
N2313      C2314   1.355       .  A
N2313      H2323   1.045       .  S
C2314      C2315   1.395       .  A
C2315      H2321   1.082       .  S
N2316      C2317   1.355       .  A
N2316      H2324   1.045       .  S
C2317      C2318   1.395       .  A
C2318      H2322   1.082       .  S
C2325      C2330   1.385       .  A
C2325      C2326   1.402       .  A
C2325      N2331   1.343       .  A
C2326      C2327   1.401       .  A
C2326      H2337   1.082       .  S
C2327      C2336   1.376       .  A
C2327      C2328   1.385       .  A
C2328      C2329   1.400       .  A
C2328      N2334   1.341       .  A
C2329      C2330   1.400       .  A
C2329      H2338   1.082       .  S
C2330      C2333   1.374       .  A
N2331      C2332   1.355       .  A
N2331      H2341   1.045       .  S
C2332      C2333   1.394       .  A
C2333      H2339   1.083       .  S
N2334      C2335   1.354       .  A
N2334      H2342   1.045       .  S
C2335      C2336   1.395       .  A
C2336      H2340   1.083       .  S
C2343      C2348   1.385       .  A
C2343      C2344   1.403   1_655  A
C2343      N2349   1.344       .  A
C2344      C2345   1.403       .  A
C2344      H2355   1.082       .  S
C2345      C2354   1.378       .  A
C2345      C2346   1.384       .  A
C2346      C2347   1.403       .  A
C2346      N2352   1.344       .  A
C2347      C2348   1.403   1_455  A
C2347      H2356   1.082       .  S
C2348      C2351   1.377       .  A
N2349      C2350   1.356       .  A
N2349      H2359   1.045       .  S
C2350      C2351   1.396       .  A
C2351      H2357   1.082       .  S
N2352      C2353   1.356       .  A
N2352      H2360   1.045       .  S
C2353      C2354   1.396       .  A
C2354      H2358   1.082       .  S
C2361      C2366   1.385       .  A
C2361      C2362   1.401   1_565  A
C2361      N2367   1.341       .  A
C2362      C2363   1.400       .  A
C2362      H2373   1.082       .  S
C2363      C2372   1.376       .  A
C2363      C2364   1.384       .  A
C2364      C2365   1.404       .  A
C2364      N2370   1.343       .  A
C2365      C2366   1.403   1_545  A
C2365      H2374   1.082       .  S
C2366      C2369   1.379       .  A
N2367      C2368   1.354       .  A
N2367      H2377   1.044       .  S
C2368      C2369   1.397       .  A
C2369      H2375   1.083       .  S
N2370      C2371   1.357       .  A
N2370      H2378   1.045       .  S
C2371      C2372   1.394       .  A
C2372      H2376   1.082       .  S
C2379      C2384   1.385       .  A
C2379      C2380   1.403       .  A
C2379      N2385   1.342       .  A
C2380      C2381   1.402       .  A
C2380      H2391   1.082       .  S
C2381      C2390   1.377       .  A
C2381      C2382   1.384       .  A
C2382      C2383   1.404       .  A
C2382      N2388   1.344       .  A
C2383      C2384   1.403       .  A
C2383      H2392   1.082       .  S
C2384      C2387   1.379       .  A
N2385      C2386   1.356       .  A
N2385      H2395   1.045       .  S
C2386      C2387   1.396       .  A
C2387      H2393   1.082       .  S
N2388      C2389   1.356       .  A
N2388      H2396   1.045       .  S
C2389      C2390   1.396       .  A
C2390      H2394   1.082       .  S
C2397      C2402   1.385       .  A
C2397      C2398   1.403       .  A
C2397      N2403   1.343       .  A
C2398      C2399   1.402       .  A
C2398      H2409   1.082       .  S
C2399      C2408   1.377       .  A
C2399      C2400   1.385       .  A
C2400      C2401   1.400       .  A
C2400      N2406   1.341       .  A
C2401      C2402   1.400       .  A
C2401      H2410   1.082       .  S
C2402      C2405   1.374       .  A
N2403      C2404   1.356       .  A
N2403      H2413   1.045       .  S
C2404      C2405   1.394       .  A
C2405      H2411   1.082       .  S
N2406      C2407   1.354       .  A
N2406      H2414   1.045       .  S
C2407      C2408   1.395       .  A
C2408      H2412   1.082       .  S
C2415      C2420   1.384       .  A
C2415      C2416   1.405       .  A
C2415      N2421   1.344       .  A
C2416      C2417   1.404       .  A
C2416      H2427   1.082       .  S
C2417      C2426   1.381       .  A
C2417      C2418   1.384       .  A
C2418      C2419   1.405       .  A
C2418      N2424   1.344       .  A
C2419      C2420   1.403       .  A
C2419      H2428   1.082       .  S
C2420      C2423   1.380       .  A
N2421      C2422   1.357       .  A
N2421      H2431   1.045       .  S
C2422      C2423   1.397       .  A
C2423      H2429   1.082       .  S
N2424      C2425   1.357       .  A
N2424      H2432   1.045       .  S
C2425      C2426   1.397       .  A
C2426      H2430   1.082       .  S
