geometry optimzed in LAMMPS
_audit_creation_date              2020-11-30 
_audit_creation_method            'lammps2cif' 
_symmetry_space_group_name_H-M    'P1' 
_symmetry_Int_Tables_number       1 
_symmetry_cell_setting            triclinic 
loop_ 
_symmetry_equiv_pos_as_xyz 
  x,y,z 
_cell_length_a                    25.96653925 
_cell_length_b                    47.876972376076075 
_cell_length_c                    39.271856565502304 
_cell_angle_alpha                 88.51493962098333 
_cell_angle_beta                  90.16875297941009 
_cell_angle_gamma                 89.87898142924337 
loop_ 
_atom_site_label 
_atom_site_type_symbol 
_atom_site_fract_x 
_atom_site_fract_y 
_atom_site_fract_z 
_atom_site_charge 
N1          N  0.58192219  0.24733992  0.46211119    -0.35900
N2          N  0.50229251  0.20259516  0.46385445    -0.56500
N3          N  0.42287118  0.24559117  0.96813819    -0.35900
N4          N  0.50241096  0.28955145  0.97047253    -0.56500
C5          C  0.60891123  0.22376523  0.47103738     0.27600
C6          C  0.60833844  0.26922724  0.97503195     0.27600
C7          C  0.39513670  0.22236433  0.47408241     0.27600
C8          C  0.39597561  0.26786851  0.97948380     0.27600
C9          C  0.54478908  0.18798673  0.45418944     0.36300
C10         C  0.45977756  0.18747273  0.45539513     0.36300
C11         C  0.54341301  0.30611919  0.96282492     0.36300
C12         C  0.45936341  0.30521926  0.96526232     0.36300
C13         C  0.65177601  0.23136052  0.48979784    -0.21200
C14         C  0.65139753  0.25949998  0.99268859    -0.21200
C15         C  0.35055750  0.22988900  0.49114088    -0.21200
C16         C  0.35079549  0.25859671  0.99457728    -0.21200
C17         C  0.52887772  0.16361377  0.43897715    -0.22300
C18         C  0.47565037  0.16330483  0.43970712    -0.22300
C19         C  0.52579841  0.33234528  0.95202331    -0.22300
C20         C  0.47284765  0.33183305  0.95404254    -0.22300
C21         C  0.59724206  0.19581036  0.46115717    -0.17600
C22         C  0.59580536  0.29808971  0.96877014    -0.17600
C23         C  0.40859984  0.29640118  0.97336697    -0.17600
C24         C  0.40736270  0.19483458  0.46327654    -0.17600
H25         H  0.68001036  0.21773525  0.50191185     0.15300
H26         H  0.67956493  0.27156956  0.00627063     0.15300
H27         H  0.32069944  0.21634449  0.50121789     0.15300
H28         H  0.32090455  0.27115196  0.00578476     0.15300
H29         H  0.55265824  0.14773316  0.42783291     0.13600
H30         H  0.45178358  0.14715838  0.42921986     0.13600
H31         H  0.54796644  0.35021056  0.94338968     0.13600
H32         H  0.44725100  0.34915877  0.94806408     0.13600
H33         H  0.55002303  0.24823214  0.44590851     0.26800
H34         H  0.45539039  0.24663697  0.95268762     0.26800
N35         N  0.08186427  0.49336256  0.50210829    -0.35900
N36         N  0.00476452  0.03638152  0.47706662    -0.56500
N37         N  0.92281358  0.49626397  0.50320037    -0.35900
N38         N  0.00091631  0.45322240  0.98356498    -0.56500
C39         C  0.11331328  0.01491112  0.48155327     0.27600
C40         C  0.10884968  0.47322702  0.98244669     0.27600
C41         C  0.89504179  0.01738711  0.48704721     0.27600
C42         C  0.89215771  0.47581022  0.98995633     0.27600
C43         C  0.04712584  0.05281285  0.47368817     0.36300
C44         C  0.96300630  0.05348780  0.47422621     0.36300
C45         C  0.04210036  0.43544027  0.98367830     0.36300
C46         C  0.95733778  0.43735219  0.98406529     0.36300
C47         C  0.16035746  0.00349828  0.47304638    -0.21200
C48         C  0.15323886  0.48517089  0.96873193    -0.21200
C49         C  0.84458851  0.00806197  0.48603969    -0.21200
C50         C  0.84294376  0.48674000  0.98607347    -0.21200
C51         C  0.03210224  0.08035080  0.46798289    -0.22300
C52         C  0.97907931  0.08076365  0.46824092    -0.22300
C53         C  0.02360174  0.40810755  0.98414878    -0.22300
C54         C  0.97068814  0.40944003  0.98402683    -0.22300
C55         C  0.09916650  0.04333758  0.47430551    -0.17600
C56         C  0.09533525  0.44399023  0.98118663    -0.17600
C57         C  0.90541529  0.44737641  0.98397696    -0.17600
C58         C  0.91050291  0.04506554  0.47705699    -0.17600
H59         H  0.19122807  0.01368427  0.45907561     0.15300
H60         H  0.18150181  0.47565128  0.95253244     0.15300
H61         H  0.81100978  0.01964126  0.47729893     0.15300
H62         H  0.80894981  0.47604665  0.97721880     0.15300
H63         H  0.05676262  0.09832437  0.46394350     0.13600
H64         H  0.95512112  0.09914674  0.46474318     0.13600
H65         H  0.04439530  0.38863568  0.98465997     0.13600
H66         H  0.94491928  0.39169311  0.98431539     0.13600
H67         H  0.04988148  0.49003211  0.51762363     0.26800
H68         H  0.96019366  0.49330126  0.51196238     0.26800
Zn69       Zn  0.32590693  0.11263566  0.46115621     1.49700
Zn70       Zn  0.21387468  0.10130566  0.42453716     1.49400
Zn71       Zn  0.21846286  0.10361901  0.00279611     1.49100
Zn72       Zn  0.24504734  0.16171714  0.45840338     1.49500
O73         O  0.25089316  0.12029619  0.46133443    -1.83500
O74         O  0.34239573  0.09379405  0.41684474    -0.74100
O75         O  0.15728900  0.07202483  0.43950610    -0.73900
O76         O  0.27099596  0.08489406  0.03169910    -0.73400
O77         O  0.26607948  0.08319441  0.39432111    -0.74100
O78         O  0.34481216  0.08887519  0.00330793    -0.73700
O79         O  0.16182566  0.07494297  0.99575868    -0.74300
O80         O  0.20563325  0.17417056  0.00286508    -0.73700
O81         O  0.18292375  0.13125409  0.39387572    -0.74400
O82         O  0.19068921  0.13389382  0.03061602    -0.73800
O83         O  0.20658281  0.17256741  0.41365374    -0.74300
O84         O  0.31685447  0.18160780  0.45752386    -0.74200
O85         O  0.37311426  0.14734615  0.46364615    -0.74000
C86         C  0.31512397  0.08356975  0.39308076     0.77800
C87         C  0.14145194  0.06465448  0.46923312     0.78300
C88         C  0.31910221  0.08081300  0.02939763     0.77200
C89         C  0.18827183  0.16041572  0.02883130     0.77600
C90         C  0.18444055  0.15785735  0.39106571     0.78800
C91         C  0.36365937  0.17345530  0.46113866     0.77800
Zn92       Zn  0.78826608  0.10582105  0.00229798     1.49700
Zn93       Zn  0.76040884  0.16288347  0.45936154     1.49400
Zn94       Zn  0.79660887  0.10288109  0.42643881     1.49100
Zn95       Zn  0.68136619  0.11319977  0.45977041     1.49500
O96         O  0.75607981  0.12134701  0.46196426    -1.83500
O97         O  0.81485234  0.13644972  0.02933564    -0.74100
O98         O  0.79807562  0.17396071  0.41439726    -0.73900
O99         O  0.85572832  0.07539858  0.44176507    -0.73400
O100        O  0.79707656  0.17678879  0.00198834    -0.74100
O101        O  0.84626044  0.07762144  0.99685829    -0.73700
O102        O  0.82499066  0.13279521  0.39582627    -0.74300
O103        O  0.66974101  0.09364183  0.41490635    -0.73700
O104        O  0.68833322  0.18268813  0.45819130    -0.74400
O105        O  0.74815810  0.08298981  0.39577688    -0.73800
O106        O  0.63259293  0.14812339  0.46077586    -0.74300
O107        O  0.66249650  0.08948607  0.00247321    -0.74200
O108        O  0.73684868  0.08657391  0.03080355    -0.74000
C109        C  0.81583685  0.16295327  0.02754156     0.77800
C110        C  0.82139713  0.15924448  0.39235820     0.78300
C111        C  0.86874280  0.06674846  0.47161542     0.77200
C112        C  0.69934945  0.08290874  0.39271840     0.77600
C113        C  0.64149661  0.17438137  0.45976821     0.78800
C114        C  0.68914198  0.08152563  0.02836892     0.77800
Zn115      Zn  0.67241112  0.38169107  0.97238441     1.49700
Zn116      Zn  0.77853554  0.39024356  0.01408058     1.49400
Zn117      Zn  0.75450751  0.33356455  0.97229958     1.49100
Zn118      Zn  0.78419770  0.39504557  0.43668987     1.49500
O119        O  0.74726997  0.37489143  0.97335464    -1.83500
O120        O  0.65161006  0.40312768  0.01420018    -0.74100
O121        O  0.79885057  0.35845865  0.04459703    -0.73900
O122        O  0.68549002  0.31265184  0.96876681    -0.73400
O123        O  0.72590312  0.41031763  0.04094292    -0.74100
O124        O  0.62764834  0.34592663  0.97271049    -0.73700
O125        O  0.78823310  0.31884214  0.01698042    -0.74300
O126        O  0.80829791  0.36547499  0.40492104    -0.73700
O127        O  0.84002947  0.41671568  0.00663679    -0.74400
O128        O  0.79101407  0.32408747  0.42969672    -0.73800
O129        O  0.84499792  0.42085906  0.45228486    -0.74300
O130        O  0.73398354  0.41659650  0.40599579    -0.74200
O131        O  0.65775707  0.40312745  0.42656076    -0.74000
C132        C  0.67720793  0.41263803  0.03916138     0.77800
C133        C  0.80049200  0.33192313  0.04384608     0.78300
C134        C  0.63836740  0.32005403  0.97014479     0.77200
C135        C  0.80673478  0.33886481  0.40426808     0.77600
C136        C  0.86167234  0.42678569  0.97994164     0.78800
C137        C  0.68509892  0.41503436  0.40331841     0.77800
Zn138      Zn  0.28863988  0.35229259  0.01354048     1.49700
Zn139      Zn  0.25616803  0.41102934  0.97251129     1.49400
Zn140      Zn  0.28482873  0.35335588  0.43628543     1.49100
Zn141      Zn  0.17682064  0.36042299  0.97623038     1.49500
O142        O  0.25111322  0.36951185  0.97490003    -1.83500
O143        O  0.31460907  0.38323801  0.04115872    -0.74100
O144        O  0.28534547  0.42428118  0.42512473    -0.73900
O145        O  0.34542549  0.32688646  0.44566302    -0.73400
O146        O  0.29616518  0.42358862  0.01417542    -0.74100
O147        O  0.34851242  0.32561884  0.00271341    -0.73700
O148        O  0.30782375  0.38312330  0.40501494    -0.74300
O149        O  0.15803508  0.33683226  0.43478561    -0.73700
O150        O  0.18579392  0.43035312  0.97732633    -0.74400
O151        O  0.23407090  0.33368415  0.40883221    -0.73800
O152        O  0.12987917  0.39618888  0.97545948    -0.74300
O153        O  0.16274351  0.34047346  0.02246472    -0.74200
O154        O  0.24045799  0.33225928  0.04507339    -0.74000
C155        C  0.31478260  0.40980532  0.03967228     0.77800
C156        C  0.30517861  0.40949004  0.40178405     0.78300
C157        C  0.36597714  0.31753093  0.97431077     0.77200
C158        C  0.18606036  0.32907423  0.40987827     0.77600
C159        C  0.13898367  0.42234089  0.97744335     0.78800
C160        C  0.19168117  0.33107919  0.04665347     0.77800
N161        N  0.00196635  0.21424325  0.25719994    -0.35900
N162        N  0.91871468  0.21524545  0.20768054    -0.56500
N163        N  0.00187251  0.21646562  0.15749675    -0.35900
N164        N  0.08433065  0.21647429  0.20729477    -0.56500
C165        C  0.96012070  0.21738202  0.27716271     0.27600
C166        C  0.04393553  0.21770810  0.27708977     0.27600
C167        C  0.95934819  0.22120376  0.13829729     0.27600
C168        C  0.04328237  0.22201907  0.13763707     0.27600
C169        C  0.89255069  0.20558951  0.23528669     0.36300
C170        C  0.89258539  0.20671666  0.18000724     0.36300
C171        C  0.11181937  0.20763412  0.23489949     0.36300
C172        C  0.11172708  0.20949432  0.17949868     0.36300
C173        C  0.97584289  0.22396093  0.30973550    -0.21200
C174        C  0.02853878  0.22404792  0.30971082    -0.21200
C175        C  0.97380661  0.23082785  0.10615567    -0.21200
C176        C  0.02655817  0.23143583  0.10573875    -0.21200
C177        C  0.84808742  0.19215835  0.22514616    -0.22300
C178        C  0.84812370  0.19285775  0.18999451    -0.22300
C179        C  0.15839368  0.19653047  0.22472270    -0.22300
C180        C  0.15850895  0.19787921  0.18956652    -0.22300
C181        C  0.91023812  0.20764147  0.26923830    -0.17600
C182        C  0.09413580  0.20876203  0.26892696    -0.17600
C183        C  0.09383814  0.21267953  0.14536593    -0.17600
C184        C  0.91010391  0.21034431  0.14612993    -0.17600
H185        H  0.95215259  0.22520650  0.33215660     0.15300
H186        H  0.05263700  0.22542833  0.33204992     0.15300
H187        H  0.94915885  0.23456487  0.08424093     0.15300
H188        H  0.04923255  0.23641808  0.08344148     0.15300
H189        H  0.81966679  0.18204444  0.24132009     0.13600
H190        H  0.81966064  0.18344576  0.17372680     0.13600
H191        H  0.18853141  0.18782268  0.24088684     0.13600
H192        H  0.18889244  0.19042905  0.17330708     0.13600
H193        H  0.00203385  0.20411239  0.23420975     0.26800
H194        H  0.00260405  0.20419598  0.17964772     0.26800
N195        N  0.99166783  0.28733538  0.17516205    -0.35900
N196        N  0.91080211  0.28683526  0.22601898    -0.56500
N197        N  0.98910451  0.28895701  0.27884135    -0.35900
N198        N  0.06986050  0.28984289  0.22860709    -0.56500
C199        C  0.94957806  0.29267615  0.15543067     0.27600
C200        C  0.03337682  0.29553975  0.15673150     0.27600
C201        C  0.94669055  0.29802858  0.29519203     0.27600
C202        C  0.03012346  0.29802702  0.29676913     0.27600
C203        C  0.88087449  0.28306384  0.19834543     0.36300
C204        C  0.87969128  0.28495524  0.25349316     0.36300
C205        C  0.10138234  0.28888704  0.20138466     0.36300
C206        C  0.09982350  0.28695868  0.25669732     0.36300
C207        C  0.96512238  0.30353985  0.12403297    -0.21200
C208        C  0.01743254  0.30463377  0.12453508    -0.21200
C209        C  0.96116478  0.31327136  0.32324675    -0.21200
C210        C  0.01355439  0.31332074  0.32417080    -0.21200
C211        C  0.83051094  0.27801750  0.20834047    -0.22300
C212        C  0.82971389  0.27940262  0.24336194    -0.22300
C213        C  0.15177723  0.28488080  0.21215176    -0.22300
C214        C  0.15069940  0.28325512  0.24724953    -0.22300
C215        C  0.89723948  0.28817136  0.16442327    -0.17600
C216        C  0.08569047  0.29524434  0.16758162    -0.17600
C217        C  0.08235166  0.29221746  0.29003528    -0.17600
C218        C  0.89501698  0.29216538  0.28663702    -0.17600
H219        H  0.94158956  0.31044858  0.10267810     0.15300
H220        H  0.04064021  0.31168554  0.10321648     0.15300
H221        H  0.93665668  0.32355841  0.34130386     0.15300
H222        H  0.03675912  0.32377007  0.34288105     0.15300
H223        H  0.79743473  0.27508979  0.19199477     0.13600
H224        H  0.79592141  0.27785201  0.25935154     0.13600
H225        H  0.18590236  0.28416827  0.19645570     0.13600
H226        H  0.18393264  0.28147705  0.26383544     0.13600
H227        H  0.99209745  0.27713413  0.19883245     0.26800
H228        H  0.99000302  0.27511079  0.25884089     0.26800
N229        N  0.48589595  0.46516574  0.16893637    -0.35900
N230        N  0.56963322  0.46173684  0.21847677    -0.56500
N231        N  0.48800864  0.46181528  0.26887942    -0.35900
N232        N  0.40400600  0.46766036  0.21900531    -0.56500
C233        C  0.52782267  0.46926708  0.14934664     0.27600
C234        C  0.44457984  0.47290330  0.15004611     0.22800
C235        C  0.53024902  0.46215427  0.28918611     0.27600
C236        C  0.44636053  0.46450897  0.28914727     0.27600
C237        C  0.59470508  0.45326563  0.19041290     0.36300
C238        C  0.59688947  0.45200476  0.24571406     0.36300
C239        C  0.37634547  0.46092627  0.19119763     0.36300
C240        C  0.37666357  0.45848006  0.24623135     0.36300
C241        C  0.51320638  0.48044379  0.11780911    -0.21200
C242        C  0.46046705  0.48264478  0.11821655    -0.21200
C243        C  0.51507040  0.46601631  0.32250461    -0.21200
C244        C  0.46245573  0.46740945  0.32249691    -0.21200
C245        C  0.63934543  0.43911532  0.19980488    -0.22300
C246        C  0.64093620  0.43851396  0.23491818    -0.22300
C247        C  0.32988376  0.44900605  0.20073995    -0.22300
C248        C  0.32996492  0.44757362  0.23579077    -0.22300
C249        C  0.57655566  0.45765392  0.15666873    -0.17600
C250        C  0.39411212  0.46432242  0.15749431    -0.17600
C251        C  0.39497773  0.45811966  0.28008497    -0.17600
C252        C  0.58064873  0.45373386  0.27998915    -0.17600
H253        H  0.53773358  0.48460357  0.09602830     0.15300
H254        H  0.43620910  0.48863714  0.09677216     0.15300
H255        H  0.53920447  0.46563312  0.34499650     0.15300
H256        H  0.43849929  0.46837258  0.34495128     0.15300
H257        H  0.66704108  0.42950870  0.18320872     0.13600
H258        H  0.66993135  0.42824180  0.25066390     0.13600
H259        H  0.29987671  0.44143813  0.18419005     0.13600
H260        H  0.30012034  0.43844961  0.25168595     0.13600
H261        H  0.48467234  0.45196698  0.19045474     0.26800
H262        H  0.48694166  0.45468153  0.24411308     0.26800
N263        N  0.50951202  0.03606286  0.26182981    -0.35900
N264        N  0.59162852  0.03230634  0.21217061    -0.56500
N265        N  0.50749493  0.03265621  0.16328035    -0.35900
N266        N  0.42579849  0.03466095  0.21305449    -0.56500
C267        C  0.55167376  0.03225231  0.28169137     0.27600
C268        C  0.46802431  0.03422220  0.28243638     0.27600
C269        C  0.54871051  0.02549960  0.14463757     0.27600
C270        C  0.46533183  0.02685926  0.14471465     0.27600
C271        C  0.61894004  0.04209497  0.23857309     0.36300
C272        C  0.61721892  0.04008359  0.18361653     0.36300
C273        C  0.39983088  0.04484169  0.23975515     0.36300
C274        C  0.39909279  0.04239379  0.18479166     0.36300
C275        C  0.53662770  0.02671815  0.31496573    -0.21200
C276        C  0.48402403  0.02837132  0.31546934    -0.21200
C277        C  0.53263103  0.01422338  0.11423263    -0.21200
C278        C  0.47976200  0.01514288  0.11424245    -0.21200
C279        C  0.66373729  0.05475103  0.22694405    -0.22300
C280        C  0.66256207  0.05354212  0.19188111    -0.22300
C281        C  0.35492404  0.05787329  0.22860488    -0.22300
C282        C  0.35453576  0.05638460  0.19358097    -0.22300
C283        C  0.60183985  0.04092322  0.27261387    -0.17600
C284        C  0.41784608  0.04340389  0.27369519    -0.17600
C285        C  0.41610717  0.03758059  0.15138530    -0.17600
C286        C  0.59844364  0.03574631  0.15048166    -0.17600
H287        H  0.56128566  0.02477361  0.33717119     0.15300
H288        H  0.46044451  0.02802605  0.33810321     0.15300
H289        H  0.55664732  0.00819487  0.09315949     0.15300
H290        H  0.45483548  0.00974043  0.09328881     0.15300
H291        H  0.69306586  0.06472293  0.24200233     0.13600
H292        H  0.69093137  0.06222677  0.17449915     0.13600
H293        H  0.32648855  0.06824438  0.24393811     0.13600
H294        H  0.32566988  0.06526441  0.17655200     0.13600
H295        H  0.50954247  0.04547464  0.23780099     0.26800
H296        H  0.50836036  0.04639836  0.18329859     0.26800
C297        C  0.33504464  0.42445248  0.06947323    -0.04800
C298        C  0.31398785  0.45026148  0.07885926    -0.32200
C299        C  0.33007140  0.46299631  0.10889364     0.37000
C300        C  0.36767889  0.44993737  0.12958818    -0.05200
C301        C  0.38776500  0.42401129  0.12055892    -0.32100
C302        C  0.37221405  0.41139232  0.09077351     0.36900
H303        H  0.28462713  0.46035033  0.06318353     0.17300
O304        O  0.31019463  0.48843638  0.11722531    -0.59600
H305        H  0.41751008  0.41406461  0.13609332     0.17300
O306        O  0.39439784  0.38645439  0.08244832    -0.59700
H307        H  0.42511343  0.39159128  0.06871713     0.44300
H308        H  0.27781686  0.48410936  0.12959415     0.44300
C309        C  0.32538859  0.42209003  0.36951466    -0.04800
C310        C  0.30720559  0.44800666  0.35655964    -0.32200
C311        C  0.32608331  0.45923565  0.32550842     0.37000
C312        C  0.36373105  0.44464183  0.30746849    -0.05200
C313        C  0.37952549  0.41821576  0.31932082    -0.32100
C314        C  0.36130676  0.40703489  0.34999377     0.36900
H315        H  0.27847535  0.45948492  0.37045827     0.17300
O316        O  0.30925613  0.48484360  0.31364985    -0.59600
H317        H  0.40873832  0.40688041  0.30560197     0.17300
O318        O  0.38021483  0.38156493  0.36100663    -0.59700
H319        H  0.41170403  0.38584195  0.37422849     0.44300
H320        H  0.27945607  0.48083244  0.29872615     0.44300
C321        C  0.16876955  0.32150042  0.07919000    -0.04800
C322        C  0.14306885  0.34118290  0.09875062    -0.32200
C323        C  0.12222179  0.33356883  0.13046941     0.37000
C324        C  0.12433548  0.30548540  0.14212918    -0.05200
C325        C  0.15438381  0.28645647  0.12425241    -0.32100
C326        C  0.17755924  0.29451750  0.09315083     0.36900
H327        H  0.13908253  0.36257185  0.08937018     0.17300
O328        O  0.09679513  0.35318896  0.14904127    -0.59600
H329        H  0.15825636  0.26521788  0.13400657     0.17300
O330        O  0.20662222  0.27564837  0.07583886    -0.59700
H331        H  0.24167861  0.27693877  0.08573929     0.44300
H332        H  0.06492694  0.35778520  0.13606851     0.44300
C333        C  0.11910811  0.29693811  0.31868887    -0.04800
C334        C  0.11074418  0.28300719  0.35034196    -0.32200
C335        C  0.13185990  0.29310031  0.38054934     0.37000
C336        C  0.16331633  0.31684946  0.37925322    -0.05200
C337        C  0.17493765  0.32945424  0.34748144    -0.32100
C338        C  0.15221622  0.32016548  0.31753740     0.36900
H339        H  0.08406434  0.26577689  0.35206580     0.17300
O340        O  0.12023082  0.28021040  0.41114233    -0.59600
H341        H  0.19951964  0.34772106  0.34611418     0.17300
O342        O  0.15940475  0.33531474  0.28781354    -0.59700
H343        H  0.13103263  0.34922319  0.28700299     0.44300
H344        H  0.14619275  0.26511601  0.41411178     0.44300
C345        C  0.65997647  0.42507228  0.37106453    -0.04800
C346        C  0.67907558  0.44836269  0.35237413    -0.32200
C347        C  0.65589184  0.45716762  0.32137548     0.37000
C348        C  0.61381303  0.44227535  0.30831222    -0.05200
C349        C  0.59700317  0.41812262  0.32593535    -0.32100
C350        C  0.61897825  0.40976926  0.35712173     0.36900
H351        H  0.71119644  0.46012290  0.36221440     0.17300
O352        O  0.67297036  0.48098866  0.30494902    -0.59600
H353        H  0.56470373  0.40642127  0.31618655     0.17300
O354        O  0.60096445  0.38601449  0.37329499    -0.59700
H355        H  0.56957090  0.39193832  0.38552150     0.44300
H356        H  0.71356049  0.96577968  0.36392563     0.44300
C357        C  0.65025058  0.42525537  0.06803977    -0.04800
C358        C  0.67470449  0.44615271  0.08676564    -0.32200
C359        C  0.65189468  0.45662686  0.11615046     0.37000
C360        C  0.60456808  0.44582845  0.12745001    -0.05200
C361        C  0.58042836  0.42476532  0.10896128    -0.32100
C362        C  0.60253554  0.41468393  0.07932984     0.36900
H363        H  0.71149798  0.45447545  0.07849017     0.17300
O364        O  0.67492773  0.47807633  0.13288812    -0.59600
H365        H  0.54377307  0.41633988  0.11742814     0.17300
O366        O  0.57849141  0.39348923  0.06265771    -0.59700
H367        H  0.55250203  0.40285069  0.04770991     0.44300
H368        H  0.70393145  0.46938698  0.14580210     0.44300
C369        C  0.82110166  0.32487077  0.37243863    -0.04800
C370        C  0.83767918  0.29698606  0.37369507    -0.32200
C371        C  0.85605183  0.28430409  0.34437447     0.37000
C372        C  0.85622142  0.29916271  0.31287847    -0.05200
C373        C  0.83413993  0.32588719  0.31093557    -0.32100
C374        C  0.81706338  0.33886851  0.34037446     0.36900
H375        H  0.83988383  0.28557289  0.39784574     0.17300
O376        O  0.87875339  0.25851550  0.34736791    -0.59600
H377        H  0.83490518  0.33780039  0.28709668     0.17300
O378        O  0.79859107  0.36569559  0.33759771    -0.59700
H379        H  0.76067795  0.36376373  0.33572443     0.44300
H380        H  0.91099774  0.26146704  0.36038807     0.44300
C381        C  0.85824975  0.29428139  0.13711422    -0.04800
C382        C  0.85931046  0.27908982  0.10693702    -0.32200
C383        C  0.83853378  0.29014047  0.07640302     0.37000
C384        C  0.81581121  0.31685927  0.07587394    -0.05200
C385        C  0.81018621  0.33070542  0.10689167    -0.32100
C386        C  0.83104657  0.31966202  0.13721795     0.36900
H387        H  0.88153206  0.26014810  0.10621624     0.17300
O388        O  0.84442038  0.27567293  0.04697286    -0.59600
H389        H  0.79171484  0.35100302  0.10744483     0.17300
O390        O  0.82991664  0.33542479  0.16587654    -0.59700
H391        H  0.79540700  0.33211868  0.17593025     0.44300
H392        H  0.87878605  0.28113534  0.03811051     0.44300
C393        C  0.62476064  0.04809346  0.12037700    -0.04800
C394        C  0.66744264  0.03492709  0.10611950    -0.32200
C395        C  0.68763096  0.04490573  0.07508314     0.37000
C396        C  0.66442867  0.06795987  0.05789649    -0.05200
C397        C  0.62174847  0.08096625  0.07219720    -0.32100
C398        C  0.60218862  0.07135838  0.10335385     0.36900
H399        H  0.68443213  0.01674021  0.11875903     0.17300
O400        O  0.73005683  0.03209467  0.06174822    -0.59600
H401        H  0.60463266  0.09924364  0.05979896     0.17300
O402        O  0.56100303  0.08488369  0.11729313    -0.59700
H403        H  0.53113693  0.07986364  0.10295895     0.44300
H404        H  0.71623720  0.01892589  0.04493090     0.44300
C405        C  0.63267929  0.05371009  0.30004987    -0.04800
C406        C  0.67615425  0.04007099  0.31375426    -0.32200
C407        C  0.69883557  0.04937768  0.34390393     0.37000
C408        C  0.67676139  0.07199391  0.36121171    -0.05200
C409        C  0.63445642  0.08608499  0.34668792    -0.32100
C410        C  0.61298714  0.07743030  0.31614692     0.36900
H411        H  0.69142484  0.02174490  0.30165850     0.17300
O412        O  0.74204803  0.03604209  0.35633148    -0.59600
H413        H  0.61825271  0.10416089  0.35884194     0.17300
O414        O  0.57191471  0.09191234  0.30232248    -0.59700
H415        H  0.54233539  0.08766421  0.31750891     0.44300
H416        H  0.73049934  0.02518268  0.37673077     0.44300
C417        C  0.88199307  0.19733567  0.11748795    -0.04800
C418        C  0.83656715  0.20907282  0.10375999    -0.32200
C419        C  0.81571491  0.19921104  0.07322495     0.37000
C420        C  0.83966401  0.17687370  0.05672434    -0.05200
C421        C  0.88359495  0.16442687  0.07150486    -0.32100
C422        C  0.90481777  0.17450181  0.10139230     0.36900
H423        H  0.81764822  0.22603503  0.11646346     0.17300
O424        O  0.77141492  0.21100428  0.06025956    -0.59600
H425        H  0.90160050  0.14662520  0.05981870     0.17300
O426        O  0.94768184  0.16164592  0.11515675    -0.59700
H427        H  0.97694934  0.16816876  0.10087907     0.44300
H428        H  0.74297481  0.19995961  0.07064425     0.44300
C429        C  0.84356740  0.17227093  0.36088175    -0.04800
C430        C  0.81995248  0.19559540  0.34467283    -0.32200
C431        C  0.83840896  0.20625017  0.31321510     0.37000
C432        C  0.88160186  0.19395824  0.29800764    -0.05200
C433        C  0.90406493  0.17027498  0.31373349    -0.32100
C434        C  0.88583541  0.15958328  0.34478689     0.36900
H435        H  0.78676650  0.20531738  0.35613515     0.17300
O436        O  0.81542888  0.22929590  0.29833659    -0.59600
H437        H  0.93766051  0.16073443  0.30248952     0.17300
O438        O  0.91043194  0.13690652  0.35949651    -0.59700
H439        H  0.93783703  0.14483608  0.37397539     0.44300
H440        H  0.78801250  0.22182867  0.28351473     0.44300
C441        C  0.34063619  0.07339549  0.36215480    -0.04800
C442        C  0.31928610  0.05113647  0.34420061    -0.32200
C443        C  0.34261761  0.04166443  0.31443575     0.37000
C444        C  0.38671017  0.05520023  0.30161650    -0.05200
C445        C  0.40628476  0.07840125  0.31852158    -0.32100
C446        C  0.38432118  0.08718781  0.34883678     0.36900
H447        H  0.28506296  0.04070164  0.35368568     0.17300
O448        O  0.32370383  0.01842785  0.29906220    -0.59600
H449        H  0.44023370  0.08902703  0.30881590     0.17300
O450        O  0.40475743  0.10992658  0.36456046    -0.59700
H451        H  0.43476228  0.10259870  0.37771147     0.44300
H452        H  0.29491263  0.02529832  0.28446042     0.44300
C453        C  0.38777053  0.04924743  0.12152858    -0.04800
C454        C  0.41032359  0.07158474  0.10323840    -0.32200
C455        C  0.39013289  0.08081742  0.07201760     0.37000
C456        C  0.34542167  0.06833082  0.05920834    -0.05200
C457        C  0.32178057  0.04651862  0.07799049    -0.32100
C458        C  0.34304106  0.03677701  0.10889130     0.36900
H459        H  0.44420518  0.08167562  0.11318844     0.17300
O460        O  0.41253467  0.10314355  0.05526004    -0.59600
H461        H  0.28674236  0.03707530  0.06867725     0.17300
O462        O  0.32069180  0.01474299  0.12605067    -0.59700
H463        H  0.29170507  0.02296849  0.13879489     0.44300
H464        H  0.44109262  0.09505439  0.04197425     0.44300
C465        C  0.12362957  0.19501183  0.29746557    -0.04800
C466        C  0.10623497  0.16891082  0.30961758    -0.32200
C467        C  0.12436418  0.15722875  0.34038373     0.37000
C468        C  0.16165223  0.17136504  0.35975385    -0.05200
C469        C  0.17941717  0.19753814  0.34743381    -0.32100
C470        C  0.16066465  0.20932609  0.31654137     0.36900
H471        H  0.07645649  0.15806686  0.29580687     0.17300
O472        O  0.10423633  0.13218664  0.35162706    -0.59600
H473        H  0.20813872  0.20881186  0.36162880     0.17300
O474        O  0.17716057  0.23526717  0.30595714    -0.59700
H475        H  0.20675072  0.23173472  0.29074746     0.44300
H476        H  0.07422417  0.13717089  0.36583059     0.44300
C477        C  0.16581407  0.17476696  0.05862037    -0.04800
C478        C  0.14778458  0.15844006  0.08652388    -0.32200
C479        C  0.12683132  0.17074303  0.11529387     0.37000
C480        C  0.12356435  0.19998410  0.11704234    -0.05200
C481        C  0.14208104  0.21633352  0.08949050    -0.32100
C482        C  0.16282508  0.20407662  0.06047078     0.36900
H483        H  0.14912864  0.13583892  0.08606114     0.17300
O484        O  0.10664627  0.15395195  0.14076186    -0.59600
H485        H  0.13784094  0.23866813  0.08951001     0.17300
O486        O  0.17945082  0.22100581  0.03405315    -0.59700
H487        H  0.14815628  0.22538994  0.02037508     0.44300
H488        H  0.13679553  0.14608914  0.15329121     0.44300
N489        N  0.58156092  0.24689011  0.96337849    -0.35900
N490        N  0.50163247  0.20225019  0.96535536    -0.56500
N491        N  0.42293721  0.24581267  0.46688225    -0.35900
N492        N  0.50200368  0.28990970  0.46944829    -0.56500
C493        C  0.60826823  0.22331762  0.97245954     0.27600
C494        C  0.60829080  0.26974509  0.47406996     0.27600
C495        C  0.39478691  0.22224471  0.97537254     0.27600
C496        C  0.39571118  0.26798849  0.47820766     0.27600
C497        C  0.54406004  0.18762861  0.95565678     0.36300
C498        C  0.45910807  0.18719156  0.95680548     0.36300
C499        C  0.54296055  0.30664505  0.46224061     0.36300
C500        C  0.45885262  0.30553785  0.46432855     0.36300
C501        C  0.65133554  0.23081230  0.99108867    -0.21200
C502        C  0.65138610  0.26003094  0.49170106    -0.21200
C503        C  0.35033198  0.22994939  0.99245175    -0.21200
C504        C  0.35063197  0.25854102  0.49327501    -0.21200
C505        C  0.52815084  0.16327680  0.94042093    -0.22300
C506        C  0.47493911  0.16302343  0.94107993    -0.22300
C507        C  0.52521405  0.33294223  0.45180771    -0.22300
C508        C  0.47224180  0.33228551  0.45357687    -0.22300
C509        C  0.59648866  0.19549722  0.96242048    -0.17600
C510        C  0.59540104  0.29868634  0.46824819    -0.17600
C511        C  0.40805984  0.29657482  0.47220371    -0.17600
C512        C  0.40674822  0.19465898  0.96461900    -0.17600
H513        H  0.67955987  0.21709581  0.00307578     0.15300
H514        H  0.67920573  0.27207520  0.50561391     0.15300
H515        H  0.32033346  0.21654506  0.00261247     0.15300
H516        H  0.32056680  0.27098193  0.50447166     0.15300
H517        H  0.55193947  0.14740193  0.92926738     0.13600
H518        H  0.45111171  0.14693384  0.93044236     0.13600
H519        H  0.54730077  0.35095720  0.44358255     0.13600
H520        H  0.44656744  0.34961951  0.44779767     0.13600
H521        H  0.54973807  0.24779386  0.94710812     0.26800
H522        H  0.45549591  0.24696806  0.45147783     0.26800
N523        N  0.08278347  0.49344665  0.99932363    -0.35900
N524        N  0.00380479  0.03729484  0.97635429    -0.56500
N525        N  0.92360581  0.49589750  0.00237156    -0.35900
N526        N  0.00034264  0.45318018  0.48622086    -0.56500
C527        C  0.11228204  0.01576328  0.98130257     0.27600
C528        C  0.10776258  0.47322518  0.48498822     0.27600
C529        C  0.89416932  0.01830879  0.98609389     0.27600
C530        C  0.89168119  0.47594183  0.49105568     0.27600
C531        C  0.04617945  0.05369025  0.97309547     0.36300
C532        C  0.96211515  0.05441673  0.97339153     0.36300
C533        C  0.04155430  0.43546749  0.48779107     0.36300
C534        C  0.95690955  0.43730071  0.48807210     0.36300
C535        C  0.15937539  0.00437269  0.97282368    -0.21200
C536        C  0.15178418  0.48522772  0.47088334    -0.21200
C537        C  0.84366943  0.00904128  0.98527675    -0.21200
C538        C  0.84256488  0.48680229  0.48630228    -0.21200
C539        C  0.03126412  0.08124059  0.96728907    -0.22300
C540        C  0.97823846  0.08168519  0.96738688    -0.22300
C541        C  0.02339133  0.40817093  0.49096989    -0.22300
C542        C  0.97041058  0.40940528  0.49068970    -0.22300
C543        C  0.09813891  0.04416161  0.97407330    -0.17600
C544        C  0.09448818  0.44399810  0.48401783    -0.17600
C545        C  0.90509461  0.44735199  0.48641682    -0.17600
C546        C  0.90964926  0.04599225  0.97619344    -0.17600
H547        H  0.19018371  0.01455006  0.95877812     0.15300
H548        H  0.17974989  0.47579759  0.45439435     0.15300
H549        H  0.81001656  0.02070919  0.97684720     0.15300
H550        H  0.80874346  0.47590905  0.47752808     0.15300
H551        H  0.05599210  0.09919872  0.96333441     0.13600
H552        H  0.95431801  0.10007623  0.96380275     0.13600
H553        H  0.04473216  0.38891880  0.49370358     0.13600
H554        H  0.94470844  0.39167214  0.49270169     0.13600
H555        H  0.05057867  0.49011777  0.01461064     0.26800
H556        H  0.96123428  0.49282917  0.01058719     0.26800
Zn557      Zn  0.32512524  0.11253221  0.96159886     1.49700
Zn558      Zn  0.21235623  0.10225203  0.92524967     1.49400
Zn559      Zn  0.21806802  0.10418622  0.50200396     1.49100
Zn560      Zn  0.24444478  0.16177222  0.95967217     1.49500
O561        O  0.25033229  0.12038368  0.96220667    -1.83500
O562        O  0.34019142  0.09374144  0.91706208    -0.74100
O563        O  0.15466870  0.07385802  0.93971733    -0.73900
O564        O  0.27020299  0.08521508  0.53076405    -0.73400
O565        O  0.26327727  0.08341424  0.89515583    -0.74100
O566        O  0.34464347  0.08906697  0.50298927    -0.73700
O567        O  0.16087632  0.07563539  0.49544525    -0.74300
O568        O  0.20746541  0.17484997  0.50188713    -0.73700
O569        O  0.18320977  0.13243397  0.89438132    -0.74400
O570        O  0.19164014  0.13485172  0.52994853    -0.73800
O571        O  0.20748146  0.17340389  0.91463485    -0.74300
O572        O  0.31609535  0.18159933  0.95957415    -0.74200
O573        O  0.37235237  0.14721987  0.96395866    -0.74000
C574        C  0.31225771  0.08359103  0.89357060     0.77800
C575        C  0.14050699  0.06533843  0.96935187     0.78300
C576        C  0.31830520  0.08103259  0.52880580     0.77200
C577        C  0.19021952  0.16139963  0.52811650     0.77600
C578        C  0.18564313  0.15899512  0.89165942     0.78800
C579        C  0.36293163  0.17336301  0.96240620     0.77800
Zn580      Zn  0.78814524  0.10472512  0.50272238     1.49700
Zn581      Zn  0.75963102  0.16349353  0.95845657     1.49400
Zn582      Zn  0.79514089  0.10343351  0.92580603     1.49100
Zn583      Zn  0.68091580  0.11347943  0.96054427     1.49500
O584        O  0.75548830  0.12198157  0.96161357    -1.83500
O585        O  0.81556172  0.13509268  0.53022879    -0.74100
O586        O  0.79771777  0.17448016  0.91354139    -0.73900
O587        O  0.85358205  0.07561210  0.94104436    -0.73400
O588        O  0.79827223  0.17562981  0.50310530    -0.74100
O589        O  0.84562412  0.07603584  0.49745172    -0.73700
O590        O  0.82480973  0.13320257  0.89538692    -0.74300
O591        O  0.66778188  0.09397536  0.91590460    -0.73700
O592        O  0.68735731  0.18285296  0.95763695    -0.74400
O593        O  0.74566433  0.08394112  0.89534827    -0.73800
O594        O  0.63217666  0.14807086  0.96221481    -0.74300
O595        O  0.66187751  0.08908002  0.50148658    -0.74200
O596        O  0.73558694  0.08578145  0.53053241    -0.74000
C597        C  0.81702690  0.16160929  0.52853671     0.77800
C598        C  0.82161890  0.15966600  0.89186070     0.78300
C599        C  0.86797838  0.06767647  0.97088734     0.77200
C600        C  0.69674188  0.08357558  0.89313484     0.77600
C601        C  0.64078360  0.17431712  0.96043455     0.78800
C602        C  0.68784044  0.08096266  0.52765557     0.77800
Zn603      Zn  0.67242832  0.38262156  0.47212883     1.49700
Zn604      Zn  0.77897733  0.38962797  0.51513584     1.49400
Zn605      Zn  0.75408743  0.33386972  0.47307717     1.49100
Zn606      Zn  0.78339207  0.39459445  0.93555143     1.49500
O607        O  0.74720404  0.37520022  0.47405151    -1.83500
O608        O  0.65230814  0.40466158  0.51425348    -0.74100
O609        O  0.79918095  0.35773455  0.54551172    -0.73900
O610        O  0.68496224  0.31335281  0.46888522    -0.73400
O611        O  0.72660485  0.40944498  0.54195367    -0.74100
O612        O  0.62716632  0.34669617  0.47263473    -0.73700
O613        O  0.78749123  0.31845045  0.51757515    -0.74300
O614        O  0.80586960  0.36497489  0.90301786    -0.73700
O615        O  0.84055865  0.41598224  0.50846674    -0.74400
O616        O  0.79095784  0.32362608  0.92854117    -0.73800
O617        O  0.84530309  0.42019377  0.95037614    -0.74300
O618        O  0.73180824  0.41670340  0.90659407    -0.74200
O619        O  0.65639205  0.40296158  0.92825296    -0.74000
C620        C  0.67820635  0.41298789  0.53985380     0.77800
C621        C  0.80039412  0.33121899  0.54451726     0.78300
C622        C  0.63784799  0.32077713  0.47002563     0.77200
C623        C  0.80526545  0.33832662  0.90264284     0.77600
C624        C  0.86167624  0.42674379  0.48199851     0.78800
C625        C  0.68277568  0.41536741  0.90499021     0.77800
Zn626      Zn  0.28983510  0.35335780  0.51302502     1.49700
Zn627      Zn  0.25505481  0.41146892  0.47201290     1.49400
Zn628      Zn  0.28625237  0.35319958  0.93652773     1.49100
Zn629      Zn  0.17623975  0.36081685  0.47662244     1.49500
O630        O  0.25061159  0.37000239  0.47475264    -1.83500
O631        O  0.31929582  0.38448653  0.53893483    -0.74100
O632        O  0.28832186  0.42410138  0.92617883    -0.73900
O633        O  0.34618257  0.32652705  0.94646947    -0.73400
O634        O  0.29752614  0.42451355  0.51229406    -0.74100
O635        O  0.34805507  0.32567141  0.50187657    -0.73700
O636        O  0.31046340  0.38304507  0.90561820    -0.74300
O637        O  0.15966057  0.33671333  0.93409868    -0.73700
O638        O  0.18469584  0.43042868  0.47858688    -0.74400
O639        O  0.23593562  0.33383470  0.90835773    -0.73800
O640        O  0.12857060  0.39632845  0.47659996    -0.74300
O641        O  0.16374002  0.34113108  0.52299230    -0.74200
O642        O  0.24189554  0.33475200  0.54589220    -0.74000
C643        C  0.31887787  0.41104723  0.53705374     0.77800
C644        C  0.30815810  0.40944672  0.90270436     0.78300
C645        C  0.36531552  0.31767315  0.47338112     0.77200
C646        C  0.18791796  0.32918773  0.90919799     0.77600
C647        C  0.13788107  0.42241337  0.47920840     0.78800
C648        C  0.19318024  0.33280135  0.54744754     0.77800
N649        N  0.00693286  0.21507657  0.75734510    -0.35900
N650        N  0.92396145  0.21392181  0.70783420    -0.56500
N651        N  0.00685238  0.21602411  0.65752060    -0.35900
N652        N  0.08933347  0.21839977  0.70724470    -0.56500
C653        C  0.96498594  0.21743065  0.77743353     0.27600
C654        C  0.04877535  0.21915704  0.77715189     0.27600
C655        C  0.96400970  0.22007603  0.63840751     0.27600
C656        C  0.04780549  0.22268251  0.63771400     0.27600
C657        C  0.89807643  0.20434736  0.73560693     0.36300
C658        C  0.89813864  0.20485016  0.68029300     0.36300
C659        C  0.11722972  0.21006093  0.73489897     0.36300
C660        C  0.11714014  0.21176857  0.67946766     0.36300
C661        C  0.98043473  0.22430391  0.80997093    -0.21200
C662        C  0.03311487  0.22510743  0.80984799    -0.21200
C663        C  0.97768958  0.23033362  0.60640273    -0.21200
C664        C  0.03039494  0.23201341  0.60594175    -0.21200
C665        C  0.85413710  0.19032790  0.72566477    -0.22300
C666        C  0.85419238  0.19062985  0.69051814    -0.22300
C667        C  0.16440051  0.19967891  0.72475595    -0.22300
C668        C  0.16451426  0.20094550  0.68958837    -0.22300
C669        C  0.91548689  0.20702857  0.76956716    -0.17600
C670        C  0.09937175  0.21085757  0.76893496    -0.17600
C671        C  0.09901101  0.21443251  0.64532195    -0.17600
C672        C  0.91534152  0.20851894  0.64632575    -0.17600
H673        H  0.95669976  0.22536345  0.83241758     0.15300
H674        H  0.05719190  0.22660343  0.83217340     0.15300
H675        H  0.95262380  0.23404532  0.58469174     0.15300
H676        H  0.05275187  0.23785524  0.58378462     0.15300
H677        H  0.82603754  0.18009647  0.74197606     0.13600
H678        H  0.82604945  0.18075714  0.67443354     0.13600
H679        H  0.19495028  0.19147046  0.74095493     0.13600
H680        H  0.19526922  0.19389918  0.67335523     0.13600
H681        H  0.00755172  0.20513908  0.73423992     0.26800
H682        H  0.00848737  0.20365347  0.67959086     0.26800
N683        N  0.99293134  0.28559510  0.67447607    -0.35900
N684        N  0.91197651  0.28466334  0.72537993    -0.56500
N685        N  0.98985018  0.28880355  0.77810899    -0.35900
N686        N  0.07069500  0.29002901  0.72802671    -0.56500
C687        C  0.95074211  0.29019505  0.65459251     0.27600
C688        C  0.03436235  0.29410607  0.65597797     0.27600
C689        C  0.94703722  0.29744590  0.79437658     0.27600
C690        C  0.03049101  0.29849351  0.79591868     0.27600
C691        C  0.88224250  0.28050249  0.69771220     0.36300
C692        C  0.88068693  0.28312628  0.75279358     0.36300
C693        C  0.10231555  0.28907853  0.70088524     0.36300
C694        C  0.10067695  0.28766595  0.75614444     0.36300
C695        C  0.96605475  0.30068836  0.62295135    -0.21200
C696        C  0.01829362  0.30243366  0.62353565    -0.21200
C697        C  0.96088952  0.31301420  0.82229578    -0.21200
C698        C  0.01328348  0.31377486  0.82314576    -0.21200
C699        C  0.83186753  0.27545085  0.70767593    -0.22300
C700        C  0.83083403  0.27730032  0.74263526    -0.22300
C701        C  0.15280692  0.28563676  0.71172024    -0.22300
C702        C  0.15166486  0.28421200  0.74679889    -0.22300
C703        C  0.89849485  0.28562883  0.66376656    -0.17600
C704        C  0.08650676  0.29492992  0.66703933    -0.17600
C705        C  0.08294449  0.29310013  0.78935190    -0.17600
C706        C  0.89556967  0.29105397  0.78577183    -0.17600
H707        H  0.94244489  0.30698611  0.60138052     0.15300
H708        H  0.04139633  0.30945122  0.60214247     0.15300
H709        H  0.93596790  0.32306725  0.84030545     0.15300
H710        H  0.03607784  0.32462201  0.84172803     0.15300
H711        H  0.79887795  0.27235552  0.69130449     0.13600
H712        H  0.79690293  0.27600031  0.75852210     0.13600
H713        H  0.18700209  0.28505404  0.69608317     0.13600
H714        H  0.18490188  0.28270748  0.76340850     0.13600
H715        H  0.99365689  0.27588275  0.69843065     0.26800
H716        H  0.99136501  0.27484060  0.75825819     0.26800
N717        N  0.48953155  0.46483502  0.67028741    -0.35900
N718        N  0.57076610  0.46171265  0.72066631    -0.56500
N719        N  0.48600313  0.46184289  0.76905328    -0.35900
N720        N  0.40447521  0.46634891  0.71808738    -0.56500
C721        C  0.53237810  0.46981108  0.65187522     0.27600
C722        C  0.44910117  0.47296357  0.65083652     0.22800
C723        C  0.52730285  0.46348325  0.79000858     0.27600
C724        C  0.44346415  0.46525103  0.78834563     0.27600
C725        C  0.59643069  0.45225869  0.69333225     0.36300
C726        C  0.59558761  0.45154270  0.74861066     0.36300
C727        C  0.37936893  0.45876796  0.68960940     0.36300
C728        C  0.37662129  0.45644842  0.74472381     0.36300
C729        C  0.51926622  0.48219350  0.62071008    -0.21200
C730        C  0.46646335  0.48405640  0.61998713    -0.21200
C731        C  0.51069356  0.46883669  0.82264027    -0.21200
C732        C  0.45805667  0.46997497  0.82161318    -0.21200
C733        C  0.63896845  0.43679386  0.70392887    -0.22300
C734        C  0.63874829  0.43660414  0.73908591    -0.22300
C735        C  0.33380317  0.44533945  0.69808619    -0.22300
C736        C  0.33193512  0.44397819  0.73322165    -0.22300
C737        C  0.58018239  0.45717545  0.65928236    -0.17600
C738        C  0.39884544  0.46320041  0.65641860    -0.17600
C739        C  0.39304023  0.45734638  0.77896525    -0.17600
C740        C  0.57785671  0.45447749  0.78233869    -0.17600
H741        H  0.54485173  0.48711358  0.59969578     0.15300
H742        H  0.44321106  0.49056231  0.59826498     0.15300
H743        H  0.53390642  0.46934185  0.84549959     0.15300
H744        H  0.43314270  0.47171694  0.84351326     0.15300
H745        H  0.66633097  0.42607914  0.68814496     0.13600
H746        H  0.66582472  0.42567149  0.75568551     0.13600
H747        H  0.30569497  0.43681211  0.68083523     0.13600
H748        H  0.30221240  0.43403920  0.74849202     0.13600
H749        H  0.48738240  0.45077105  0.69082527     0.26800
H750        H  0.48628815  0.45316487  0.74520937     0.26800
N751        N  0.50491228  0.03719893  0.76207317    -0.35900
N752        N  0.58700869  0.03517430  0.71233198    -0.56500
N753        N  0.50320330  0.03453665  0.66366677    -0.35900
N754        N  0.42116103  0.03499980  0.71326567    -0.56500
C755        C  0.54714354  0.03386505  0.78200923     0.27600
C756        C  0.46338861  0.03466998  0.78256849     0.27600
C757        C  0.54466065  0.02771030  0.64509592     0.27600
C758        C  0.46135068  0.02786324  0.64530122     0.27600
C759        C  0.61404707  0.04484070  0.73890580     0.36300
C760        C  0.61236067  0.04338516  0.68384259     0.36300
C761        C  0.39492067  0.04491443  0.73996003     0.36300
C762        C  0.39449003  0.04279272  0.68503999     0.36300
C763        C  0.53214264  0.02796957  0.81521936    -0.21200
C764        C  0.47946536  0.02886384  0.81559917    -0.21200
C765        C  0.52909136  0.01569770  0.61501033    -0.21200
C766        C  0.47622080  0.01593640  0.61505696    -0.21200
C767        C  0.65845881  0.05800327  0.72742422    -0.22300
C768        C  0.65728213  0.05716879  0.69229094    -0.22300
C769        C  0.34985629  0.05782034  0.72884233    -0.22300
C770        C  0.34967843  0.05654702  0.69380059    -0.22300
C771        C  0.59719276  0.04286361  0.77300045    -0.17600
C772        C  0.41292434  0.04340736  0.77385047    -0.17600
C773        C  0.41186424  0.03819490  0.65173095    -0.17600
C774        C  0.59385632  0.03873550  0.65068256    -0.17600
H775        H  0.55672009  0.02614433  0.83747446     0.15300
H776        H  0.45575444  0.02807606  0.83816920     0.15300
H777        H  0.55334257  0.00967481  0.59405241     0.15300
H778        H  0.45149514  0.00994437  0.59425842     0.15300
H779        H  0.68758956  0.06797309  0.74265140     0.13600
H780        H  0.68545602  0.06619353  0.67502167     0.13600
H781        H  0.32120298  0.06798088  0.74421512     0.13600
H782        H  0.32080409  0.06539966  0.67675354     0.13600
H783        H  0.50458488  0.04663342  0.73805234     0.26800
H784        H  0.50339839  0.04861016  0.68337338     0.26800
C785        C  0.34123936  0.42601241  0.56586380    -0.04800
C786        C  0.31671792  0.44993255  0.57825504    -0.32200
C787        C  0.33315755  0.46175470  0.60877539     0.37000
C788        C  0.37461141  0.44970919  0.62694170    -0.05200
C789        C  0.39916881  0.42600360  0.61435544    -0.32100
C790        C  0.38319247  0.41432623  0.58404643     0.36900
H791        H  0.28392535  0.45895059  0.56481955     0.17300
O792        O  0.30944549  0.48530526  0.62017887    -0.59600
H793        H  0.43196013  0.41693583  0.62779436     0.17300
O794        O  0.40892176  0.39142178  0.57239424    -0.59700
H795        H  0.43616751  0.39909729  0.55719880     0.44300
H796        H  0.28006871  0.47842245  0.63409471     0.44300
C797        C  0.32798928  0.42216607  0.87035846    -0.04800
C798        C  0.30784590  0.44743115  0.85672911    -0.32200
C799        C  0.32485374  0.45817461  0.82493586     0.37000
C800        C  0.36236736  0.44365788  0.80658186    -0.05200
C801        C  0.38053463  0.41794726  0.81943792    -0.32100
C802        C  0.36450503  0.40741375  0.85101383     0.36900
H803        H  0.27893356  0.45876743  0.87064553     0.17300
O804        O  0.30650705  0.48337541  0.81274705    -0.59600
H805        H  0.41024499  0.40687501  0.80585741     0.17300
O806        O  0.38615596  0.38291381  0.86310153    -0.59700
H807        H  0.41632884  0.38863467  0.87679245     0.44300
H808        H  0.27858006  0.47865847  0.79662520     0.44300
C809        C  0.17058492  0.32307686  0.57993400    -0.04800
C810        C  0.14197072  0.34209606  0.59870997    -0.32200
C811        C  0.12026544  0.33399321  0.62997830     0.37000
C812        C  0.12466469  0.30603838  0.64187089    -0.05200
C813        C  0.15734657  0.28779269  0.62477553    -0.32100
C814        C  0.18126391  0.29640974  0.59420203     0.36900
H815        H  0.13620780  0.36327808  0.58900772     0.17300
O816        O  0.09187903  0.35289757  0.64782917    -0.59600
H817        H  0.16264524  0.26665153  0.63458194     0.17300
O818        O  0.21271372  0.27824523  0.57756120    -0.59700
H819        H  0.24762707  0.28142002  0.58697581     0.44300
H820        H  0.06055153  0.35673390  0.63395645     0.44300
C821        C  0.11946633  0.29781797  0.81815084    -0.04800
C822        C  0.11019176  0.28426714  0.84990839    -0.32200
C823        C  0.13201250  0.29405573  0.87999660     0.37000
C824        C  0.16528968  0.31703218  0.87851804    -0.05200
C825        C  0.17781834  0.32922343  0.84666326    -0.32100
C826        C  0.15419733  0.32035506  0.81680674     0.36900
H827        H  0.08215947  0.26771477  0.85185382     0.17300
O828        O  0.11916047  0.28171265  0.91069145    -0.59600
H829        H  0.20363812  0.34697433  0.84517792     0.17300
O830        O  0.16221507  0.33530994  0.78703638    -0.59700
H831        H  0.13445950  0.34957580  0.78607308     0.44300
H832        H  0.14343289  0.26581840  0.91373701     0.44300
C833        C  0.65611646  0.42618844  0.87383348    -0.04800
C834        C  0.67544154  0.44933736  0.85505249    -0.32200
C835        C  0.65183378  0.45830753  0.82434402     0.37000
C836        C  0.60931948  0.44361361  0.81162849    -0.05200
C837        C  0.59120244  0.42007101  0.82984456    -0.32100
C838        C  0.61343206  0.41165267  0.86084825     0.36900
H839        H  0.70832338  0.46072325  0.86447205     0.17300
O840        O  0.66906892  0.48203609  0.80778249    -0.59600
H841        H  0.55817166  0.40874254  0.82048694     0.17300
O842        O  0.59421315  0.38844936  0.87761060    -0.59700
H843        H  0.56419616  0.39525515  0.89060790     0.44300
H844        H  0.71062529  0.96696039  0.86366757     0.44300
C845        C  0.65215597  0.42550249  0.56930682    -0.04800
C846        C  0.68001834  0.44309694  0.59093227    -0.32200
C847        C  0.65811196  0.45295737  0.62099212     0.37000
C848        C  0.60787148  0.44497855  0.62999548    -0.05200
C849        C  0.58055173  0.42691571  0.60877067    -0.32100
C850        C  0.60185636  0.41755375  0.57850879     0.36900
H851        H  0.71895303  0.44931287  0.58447026     0.17300
O852        O  0.68503899  0.47125495  0.64058004    -0.59600
H853        H  0.54179727  0.42046511  0.61545472     0.17300
O854        O  0.57402408  0.39957804  0.55902257    -0.59700
H855        H  0.55109172  0.41170639  0.54479361     0.44300
H856        H  0.71403735  0.46029086  0.65061344     0.44300
C857        C  0.81969378  0.32415786  0.87080954    -0.04800
C858        C  0.83586598  0.29616951  0.87220126    -0.32200
C859        C  0.85504479  0.28342268  0.84311108     0.37000
C860        C  0.85628933  0.29826614  0.81164075    -0.05200
C861        C  0.83459644  0.32508021  0.80944399    -0.32100
C862        C  0.81684320  0.33815723  0.83867170     0.36900
H863        H  0.83723817  0.28471875  0.89634691     0.17300
O864        O  0.87739566  0.25755292  0.84636529    -0.59600
H865        H  0.83624166  0.33698847  0.78562170     0.17300
O866        O  0.79910774  0.36511279  0.83564780    -0.59700
H867        H  0.76136229  0.36343694  0.83240512     0.44300
H868        H  0.90963840  0.26046288  0.85939327     0.44300
C869        C  0.85928249  0.29235716  0.63683668    -0.04800
C870        C  0.85869334  0.27726034  0.60657739    -0.32200
C871        C  0.83753166  0.28876805  0.57637335     0.37000
C872        C  0.81616159  0.31583133  0.57626995    -0.05200
C873        C  0.81246390  0.32968240  0.60740806    -0.32100
C874        C  0.83370159  0.31821627  0.63737310     0.36900
H875        H  0.88011091  0.25804007  0.60542330     0.17300
O876        O  0.84178164  0.27435641  0.54678301    -0.59600
H877        H  0.79526858  0.35028876  0.60831607     0.17300
O878        O  0.83475237  0.33399057  0.66603312    -0.59700
H879        H  0.80101228  0.33071509  0.67718119     0.44300
H880        H  0.87648096  0.27898633  0.53780505     0.44300
C881        C  0.62051059  0.05024400  0.62015928    -0.04800
C882        C  0.66570004  0.03787531  0.60833677    -0.32200
C883        C  0.68677571  0.04664209  0.57704423     0.37000
C884        C  0.66217216  0.06779233  0.55716548    -0.05200
C885        C  0.61674900  0.07983444  0.56890013    -0.32100
C886        C  0.59615894  0.07142022  0.60024921     0.36900
H887        H  0.68404171  0.02117754  0.62308052     0.17300
O888        O  0.73155237  0.03458237  0.56614784    -0.59600
H889        H  0.59824940  0.09664469  0.55441057     0.17300
O890        O  0.55230060  0.08417885  0.61158856    -0.59700
H891        H  0.52448841  0.07782508  0.59629588     0.44300
H892        H  0.72051309  0.01817614  0.55307705     0.44300
C893        C  0.62828873  0.05501459  0.80075163    -0.04800
C894        C  0.67054737  0.04049322  0.81485722    -0.32200
C895        C  0.69356526  0.04946675  0.84506671     0.37000
C896        C  0.67316835  0.07274145  0.86193020    -0.05200
C897        C  0.63173553  0.08749131  0.84725343    -0.32100
C898        C  0.60977023  0.07903506  0.81676406     0.36900
H899        H  0.68460884  0.02178614  0.80298936     0.17300
O900        O  0.73550163  0.03520688  0.85795495    -0.59600
H901        H  0.61668171  0.10593281  0.85923602     0.17300
O902        O  0.56941894  0.09406441  0.80288569    -0.59700
H903        H  0.53924829  0.08947820  0.81740799     0.44300
H904        H  0.72371483  0.02620092  0.87956594     0.44300
C905        C  0.88689720  0.19567948  0.61760950    -0.04800
C906        C  0.83952982  0.20643783  0.60574936    -0.32200
C907        C  0.81733008  0.19671612  0.57553866     0.37000
C908        C  0.84181605  0.17539109  0.55750866    -0.05200
C909        C  0.88779419  0.16383011  0.57039704    -0.32100
C910        C  0.91051114  0.17391179  0.59985973     0.36900
H911        H  0.82016836  0.22261856  0.61962269     0.17300
O912        O  0.77127390  0.20765392  0.56434694    -0.59600
H913        H  0.90629519  0.14677326  0.55749940     0.17300
O914        O  0.95553739  0.16201066  0.61164803    -0.59700
H915        H  0.98284643  0.16925595  0.59619573     0.44300
H916        H  0.74450785  0.19613232  0.57589543     0.44300
C917        C  0.84533468  0.17259793  0.86084865    -0.04800
C918        C  0.82126147  0.19501302  0.84310321    -0.32200
C919        C  0.84123882  0.20534252  0.81189321     0.37000
C920        C  0.88654908  0.19375695  0.79857010    -0.05200
C921        C  0.90967745  0.17100391  0.81593530    -0.32100
C922        C  0.88979849  0.16055982  0.84668016     0.36900
H923        H  0.78645218  0.20418764  0.85309681     0.17300
O924        O  0.81750374  0.22741604  0.79539026    -0.59600
H925        H  0.94473210  0.16191775  0.80611586     0.17300
O926        O  0.91474826  0.13870538  0.86294821    -0.59700
H927        H  0.94001277  0.14750283  0.87830843     0.44300
H928        H  0.78881218  0.21908541  0.78242449     0.44300
C929        C  0.33690134  0.07341315  0.86244464    -0.04800
C930        C  0.31565141  0.05082429  0.84505109    -0.32200
C931        C  0.33837494  0.04138282  0.81507422     0.37000
C932        C  0.38179157  0.05520324  0.80167884    -0.05200
C933        C  0.40097622  0.07878372  0.81795242    -0.32100
C934        C  0.37952756  0.08762772  0.84834693     0.36900
H935        H  0.28209435  0.04012120  0.85515673     0.17300
O936        O  0.31962754  0.01793764  0.80006627    -0.59600
H937        H  0.43432015  0.08965173  0.80771227     0.17300
O938        O  0.39940795  0.11080534  0.86342720    -0.59700
H939        H  0.42982218  0.10396508  0.87653934     0.44300
H940        H  0.29039692  0.02455708  0.78568385     0.44300
C941        C  0.38399240  0.04993380  0.62183211    -0.04800
C942        C  0.40661299  0.07251415  0.60404282    -0.32200
C943        C  0.38756923  0.08152681  0.57245042     0.37000
C944        C  0.34387232  0.06861089  0.55883631    -0.05200
C945        C  0.32005003  0.04660058  0.57714673    -0.32100
C946        C  0.34026624  0.03703830  0.60840167     0.36900
H947        H  0.43981784  0.08286209  0.61461101     0.17300
O948        O  0.41001844  0.10402081  0.55606219    -0.59600
H949        H  0.28570547  0.03687571  0.56718375     0.17300
O950        O  0.31801802  0.01473606  0.62510907    -0.59700
H951        H  0.28876710  0.02271507  0.63783032     0.44300
H952        H  0.43920778  0.09613385  0.54318679     0.44300
C953        C  0.12874416  0.19682231  0.79733438    -0.04800
C954        C  0.11111719  0.17059468  0.80885350    -0.32200
C955        C  0.12795055  0.15872553  0.83980738     0.37000
C956        C  0.16436825  0.17273062  0.86001358    -0.05200
C957        C  0.18277569  0.19893145  0.84820222    -0.32100
C958        C  0.16517358  0.21096354  0.81712473     0.36900
H959        H  0.08183935  0.15986080  0.79446459     0.17300
O960        O  0.10729551  0.13363641  0.85041415    -0.59600
H961        H  0.21098188  0.21006824  0.86299014     0.17300
O962        O  0.18208280  0.23697061  0.80710200    -0.59700
H963        H  0.21111718  0.23353091  0.79139973     0.44300
H964        H  0.07674563  0.13855712  0.86415118     0.44300
C965        C  0.16921638  0.17609692  0.55819237    -0.04800
C966        C  0.15295539  0.16002268  0.58678509    -0.32200
C967        C  0.13303408  0.17253334  0.61573754     0.37000
C968        C  0.12896030  0.20177373  0.61702372    -0.05200
C969        C  0.14619969  0.21794827  0.58890661    -0.32100
C970        C  0.16588531  0.20544270  0.55966803     0.36900
H971        H  0.15480854  0.13742066  0.58673059     0.17300
O972        O  0.11445142  0.15588141  0.64187785    -0.59600
H973        H  0.14177107  0.24030950  0.58870293     0.17300
O974        O  0.18092020  0.22215738  0.53263045    -0.59700
H975        H  0.14910498  0.22568050  0.51913956     0.44300
H976        H  0.14535800  0.14842779  0.65394132     0.44300
N977        N  0.58453506  0.74675316  0.53249193    -0.35900
N978        N  0.50409631  0.70172235  0.53385709    -0.56500
N979        N  0.42614235  0.74549594  0.03613631    -0.35900
N980        N  0.50582301  0.78969920  0.04001793    -0.56500
C981        C  0.61113161  0.72310744  0.54133994     0.27600
C982        C  0.61224737  0.76935500  0.04639417     0.27600
C983        C  0.39683808  0.72205275  0.54142061     0.27600
C984        C  0.39826954  0.76808095  0.04571905     0.27600
C985        C  0.54682325  0.68710001  0.52464719     0.36300
C986        C  0.46175238  0.68630249  0.52567596     0.36300
C987        C  0.54732142  0.80626384  0.03335815     0.36300
C988        C  0.46304250  0.80535496  0.03342565     0.36300
C989        C  0.65455211  0.73051102  0.55972459    -0.21200
C990        C  0.65588330  0.75979341  0.06356245    -0.21200
C991        C  0.35166944  0.73041538  0.55714899    -0.21200
C992        C  0.35191169  0.75906876  0.05937377    -0.21200
C993        C  0.53119251  0.66233025  0.51020300    -0.22300
C994        C  0.47799054  0.66181109  0.51091583    -0.22300
C995        C  0.53027806  0.83245992  0.02207315    -0.22300
C996        C  0.47728661  0.83194428  0.02260395    -0.22300
C997        C  0.59930186  0.69532984  0.53102386    -0.17600
C998        C  0.59970047  0.79819927  0.03971605    -0.17600
C999        C  0.41147553  0.79662773  0.03952893    -0.17600
C1000       C  0.40906447  0.69398114  0.53238010    -0.17600
H1001       H  0.68294259  0.71672354  0.57141798     0.15300
H1002       H  0.68459092  0.77203784  0.07642463     0.15300
H1003       H  0.32117960  0.71737549  0.56736578     0.15300
H1004       H  0.32113926  0.77185978  0.06909991     0.15300
H1005       H  0.55507430  0.64631183  0.49945454     0.13600
H1006       H  0.45441398  0.64540676  0.50074491     0.13600
H1007       H  0.55281427  0.85028561  0.01379807     0.13600
H1008       H  0.45212359  0.84923756  0.01568588     0.13600
H1009       H  0.55265376  0.74765414  0.51629554     0.26800
H1010       H  0.46003283  0.74624020  0.02203113     0.26800
N1011       N  0.08504459  0.99520221  0.49886828    -0.35900
N1012       N  0.00438037  0.53652909  0.51701349    -0.56500
N1013       N  0.92545619  0.99652061  0.50028663    -0.35900
N1014       N  0.00478123  0.95494582  0.01706304    -0.56500
C1015       C  0.10991014  0.51745039  0.49984409     0.27600
C1016       C  0.11310675  0.97231566  0.00157420     0.27600
C1017       C  0.89416311  0.51998741  0.50576644     0.27600
C1018       C  0.89420363  0.97481392  0.00594961     0.27600
C1019       C  0.04749495  0.55093180  0.52509775     0.36300
C1020       C  0.96335150  0.55249710  0.52560735     0.36300
C1021       C  0.04703463  0.94047500  0.02848579     0.36300
C1022       C  0.96212353  0.94130168  0.02891423     0.36300
C1023       C  0.15362626  0.51258036  0.48074168    -0.21200
C1024       C  0.15963595  0.97709952  0.98491464    -0.21200
C1025       C  0.84408689  0.51436509  0.49548500    -0.21200
C1026       C  0.84364176  0.98186321  0.99761709    -0.21200
C1027       C  0.03364889  0.57623881  0.53892442    -0.22300
C1028       C  0.98062345  0.57724974  0.53914634    -0.22300
C1029       C  0.03064687  0.91765403  0.04812356    -0.22300
C1030       C  0.97744966  0.91799596  0.04797937    -0.22300
C1031       C  0.09852414  0.54334699  0.51580746    -0.17600
C1032       C  0.09971845  0.94678813  0.01974566    -0.17600
C1033       C  0.90957646  0.94854664  0.02130177    -0.17600
C1034       C  0.91081104  0.54625012  0.51852247    -0.17600
H1035       H  0.18380432  0.52718965  0.47395330     0.15300
H1036       H  0.19077990  0.96250637  0.98111609     0.15300
H1037       H  0.81147077  0.52847436  0.49508118     0.15300
H1038       H  0.80964365  0.96903412  0.00070802     0.15300
H1039       H  0.05893554  0.59285733  0.54668700     0.13600
H1040       H  0.95752918  0.59463612  0.54741603     0.13600
H1041       H  0.05409206  0.90219590  0.06142367     0.13600
H1042       H  0.95289517  0.90279705  0.06070063     0.13600
H1043       H  0.05049287  0.99887889  0.51127109     0.26800
H1044       H  0.96401629  0.99824019  0.50660609     0.26800
Zn1045     Zn  0.32606893  0.61141331  0.53247479     1.49700
Zn1046     Zn  0.22180068  0.60269326  0.48655120     1.49400
Zn1047     Zn  0.21135687  0.60163026  0.06214063     1.49100
Zn1048     Zn  0.24621932  0.66103081  0.52409171     1.49500
O1049       O  0.25148027  0.61949802  0.52704186    -1.83500
O1050       O  0.34857486  0.58772388  0.49245705    -0.74100
O1051       O  0.16251453  0.57503594  0.49318931    -0.73900
O1052       O  0.25795588  0.58304490  0.09786460    -0.73400
O1053       O  0.27621585  0.58251843  0.46248676    -0.74100
O1054       O  0.33641371  0.59246806  0.07803080    -0.73700
O1055       O  0.15576644  0.57284193  0.04666375    -0.74300
O1056       O  0.20672986  0.67294127  0.06511088    -0.73700
O1057       O  0.19832456  0.63270339  0.45438163    -0.74400
O1058       O  0.17925788  0.63250281  0.08812348    -0.73800
O1059       O  0.21181702  0.67363432  0.47814384    -0.74300
O1060       O  0.31834922  0.68076035  0.52617818    -0.74200
O1061       O  0.37412460  0.64635073  0.53313489    -0.74000
C1062       C  0.32419681  0.57864549  0.46664109     0.77800
C1063       C  0.14089303  0.56471631  0.51966259     0.78300
C1064       C  0.30674310  0.58295500  0.10147831     0.77200
C1065       C  0.18277202  0.65908120  0.08852200     0.77600
C1066       C  0.19604102  0.65922208  0.45312637     0.78800
C1067       C  0.36505549  0.67254516  0.53031267     0.77800
Zn1068     Zn  0.80156073  0.60529858  0.06602687     1.49700
Zn1069     Zn  0.76304570  0.66496721  0.52472473     1.49400
Zn1070     Zn  0.79275702  0.60752076  0.48617600     1.49100
Zn1071     Zn  0.68543208  0.61404354  0.52838938     1.49500
O1072       O  0.75964443  0.62334968  0.52591614    -1.83500
O1073       O  0.83129101  0.63605336  0.09345035    -0.74100
O1074       O  0.80120849  0.67874355  0.48055867    -0.73900
O1075       O  0.85061894  0.57938986  0.49484493    -0.73400
O1076       O  0.80229688  0.67653476  0.07094760    -0.74100
O1077       O  0.85864426  0.57659564  0.05263107    -0.73700
O1078       O  0.81970748  0.63835229  0.45640430    -0.74300
O1079       O  0.66646585  0.59106466  0.48702531    -0.73700
O1080       O  0.69023439  0.68346283  0.52495925    -0.74400
O1081       O  0.74109479  0.58722526  0.45946269    -0.73800
O1082       O  0.63611113  0.64821456  0.52997761    -0.74300
O1083       O  0.67546895  0.59292769  0.07505771    -0.74200
O1084       O  0.75271918  0.58594635  0.09877925    -0.74000
C1085       C  0.82640262  0.66254616  0.09431482     0.77800
C1086       C  0.82096916  0.66492136  0.45626166     0.78300
C1087       C  0.87098498  0.56897614  0.52179732     0.77200
C1088       C  0.69320694  0.58249167  0.46205887     0.77600
C1089       C  0.64400026  0.67451599  0.52827777     0.78800
C1090       C  0.70384192  0.58391070  0.09957991     0.77800
Zn1091     Zn  0.67737244  0.88200206  0.04207925     1.49700
Zn1092     Zn  0.79140246  0.89402576  0.07345263     1.49400
Zn1093     Zn  0.75842998  0.83417762  0.03792066     1.49100
Zn1094     Zn  0.78123906  0.89182696  0.49837931     1.49500
O1095       O  0.75189491  0.87541846  0.03758365    -1.83500
O1096       O  0.66553103  0.90058440  0.08730059    -0.74100
O1097       O  0.81531301  0.86324814  0.10476377    -0.73900
O1098       O  0.68951218  0.81274746  0.03734357    -0.73400
O1099       O  0.74299263  0.91494022  0.10421875    -0.74100
O1100       O  0.63224446  0.84609107  0.04292742    -0.73700
O1101       O  0.79356544  0.82250887  0.08229150    -0.74300
O1102       O  0.79734610  0.86181320  0.46660896    -0.73700
O1103       O  0.85278040  0.92005518  0.05759682    -0.74400
O1104       O  0.79482855  0.82163764  0.49627306    -0.73800
O1105       O  0.84461750  0.91667956  0.50361095    -0.74300
O1106       O  0.72834176  0.91393995  0.47425215    -0.74200
O1107       O  0.65487585  0.90590716  0.50204949    -0.74000
C1108       C  0.69454127  0.91267575  0.10870248     0.77800
C1109       C  0.81172695  0.83668972  0.10668499     0.78300
C1110       C  0.64255544  0.82016526  0.04010579     0.77200
C1111       C  0.80217013  0.83542832  0.46843397     0.77600
C1112       C  0.86735262  0.92715796  0.02748042     0.78800
C1113       C  0.67987394  0.91645465  0.47680579     0.77800
Zn1114     Zn  0.29226789  0.85494255  0.07648105     1.49700
Zn1115     Zn  0.26044961  0.91446068  0.03721308     1.49400
Zn1116     Zn  0.29272969  0.85587632  0.49807708     1.49100
Zn1117     Zn  0.18144361  0.86410694  0.03772847     1.49500
O1118       O  0.25600385  0.87278555  0.03780652    -1.83500
O1119       O  0.31935731  0.88531928  0.10431796    -0.74100
O1120       O  0.30062987  0.92700995  0.49306715    -0.73900
O1121       O  0.35105823  0.82757780  0.50846817    -0.73400
O1122       O  0.29615249  0.92662344  0.08166987    -0.74100
O1123       O  0.35093952  0.82690910  0.06716177    -0.73700
O1124       O  0.31986996  0.88662597  0.46947162    -0.74300
O1125       O  0.16708592  0.83728226  0.49577323    -0.73700
O1126       O  0.18896505  0.93418290  0.03278746    -0.74400
O1127       O  0.24220485  0.83785941  0.46835657    -0.73800
O1128       O  0.13403923  0.89930157  0.02918277    -0.74300
O1129       O  0.16506613  0.84594366  0.08473313    -0.74200
O1130       O  0.24231733  0.83590786  0.10718273    -0.74000
C1131       C  0.31779522  0.91182626  0.10532931     0.77800
C1132       C  0.32023035  0.91313961  0.46883506     0.78300
C1133       C  0.36910285  0.81822833  0.03924664     0.77200
C1134       C  0.19482741  0.83156528  0.46994262     0.77600
C1135       C  0.14289178  0.92560905  0.02806028     0.78800
C1136       C  0.19351006  0.83573990  0.10876021     0.77800
N1137       N  0.01308792  0.71803007  0.32214720    -0.35900
N1138       N  0.92723383  0.71965914  0.27426054    -0.56500
N1139       N  0.00836966  0.71768303  0.22270475    -0.35900
N1140       N  0.09321837  0.71660103  0.26995444    -0.56500
C1141       C  0.97251795  0.72168834  0.34320896     0.27600
C1142       C  0.05655293  0.72038080  0.34101566     0.27600
C1143       C  0.96539982  0.72402317  0.20473701     0.27600
C1144       C  0.04903724  0.72264538  0.20205411     0.27600
C1145       C  0.90182969  0.71104806  0.30268479     0.36300
C1146       C  0.89988844  0.71055962  0.24730353     0.36300
C1147       C  0.12062145  0.70709331  0.29719395     0.36300
C1148       C  0.11740485  0.70736784  0.24188241     0.36300
C1149       C  0.99067694  0.72760040  0.37544366    -0.21200
C1150       C  0.04331641  0.72670376  0.37408711    -0.21200
C1151       C  0.97892581  0.73416911  0.17260754    -0.21200
C1152       C  0.03177787  0.73329626  0.17089910    -0.21200
C1153       C  0.85655741  0.69778618  0.29368654    -0.22300
C1154       C  0.85545358  0.69737073  0.25852904    -0.22300
C1155       C  0.16404696  0.69298768  0.28635048    -0.22300
C1156       C  0.16198189  0.69315171  0.25120269    -0.22300
C1157       C  0.92111005  0.71340908  0.33635352    -0.17600
C1158       C  0.10583444  0.71046390  0.33156033    -0.17600
C1159       C  0.09854347  0.71147604  0.20822988    -0.17600
C1160       C  0.91650794  0.71313039  0.21303949    -0.17600
H1161       H  0.96858182  0.72900182  0.39855009     0.15300
H1162       H  0.06853189  0.72744330  0.39595492     0.15300
H1163       H  0.95320052  0.73921187  0.15159694     0.15300
H1164       H  0.05440165  0.73797839  0.14841186     0.15300
H1165       H  0.82846204  0.68829150  0.31064017     0.13600
H1166       H  0.82622160  0.68769915  0.24310898     0.13600
H1167       H  0.19337390  0.68302034  0.30211549     0.13600
H1168       H  0.18941483  0.68341804  0.23451341     0.13600
H1169       H  0.01112503  0.70865834  0.29872345     0.26800
H1170       H  0.00912301  0.70456562  0.24420440     0.26800
N1171       N  0.99528047  0.78966777  0.23753090    -0.35900
N1172       N  0.91483670  0.79125068  0.28926951    -0.56500
N1173       N  0.99345172  0.79430449  0.34054354    -0.35900
N1174       N  0.07365865  0.79341147  0.28991175    -0.56500
C1175       C  0.95308864  0.79472451  0.21794893     0.27600
C1176       C  0.03676237  0.79678196  0.21828383     0.27600
C1177       C  0.95143480  0.80391824  0.35680596     0.27600
C1178       C  0.03476684  0.80421851  0.35731924     0.27600
C1179       C  0.88463623  0.78741317  0.26184815     0.36300
C1180       C  0.88393867  0.78956658  0.31683704     0.36300
C1181       C  0.10490261  0.79144067  0.26272498     0.36300
C1182       C  0.10362067  0.79073113  0.31793612     0.36300
C1183       C  0.96834216  0.80379969  0.18564838    -0.21200
C1184       C  0.02062880  0.80444488  0.18564921    -0.21200
C1185       C  0.96625494  0.82068284  0.38337513    -0.21200
C1186       C  0.01882778  0.82084202  0.38372779    -0.21200
C1187       C  0.83418497  0.78290350  0.27197692    -0.22300
C1188       C  0.83377195  0.78415923  0.30697043    -0.22300
C1189       C  0.15518158  0.78697749  0.27341388    -0.22300
C1190       C  0.15423479  0.78599447  0.30853559    -0.22300
C1191       C  0.90089361  0.79179761  0.22792628    -0.17600
C1192       C  0.08898326  0.79727515  0.22895437    -0.17600
C1193       C  0.08654224  0.79728776  0.35090559    -0.17600
C1194       C  0.90004208  0.79652344  0.34985795    -0.17600
H1195       H  0.94467612  0.80984109  0.16400291     0.15300
H1196       H  0.04380143  0.81038713  0.16382286     0.15300
H1197       H  0.94170056  0.83150390  0.40095981     0.15300
H1198       H  0.04263898  0.83187902  0.40158806     0.15300
H1199       H  0.80094100  0.78011953  0.25573654     0.13600
H1200       H  0.80007165  0.78270590  0.32304557     0.13600
H1201       H  0.18909905  0.78543098  0.25763430     0.13600
H1202       H  0.18745981  0.78402544  0.32509695     0.13600
H1203       H  0.99564577  0.78077561  0.26192037     0.26800
H1204       H  0.99402823  0.77918392  0.32194264     0.26800
N1205       N  0.50316588  0.96112311  0.23807604    -0.35900
N1206       N  0.58161265  0.95907541  0.29020561    -0.56500
N1207       N  0.49562470  0.96380362  0.33738331    -0.35900
N1208       N  0.41682392  0.96783541  0.28538679    -0.56500
C1209       C  0.54643937  0.96134214  0.21886620     0.27600
C1210       C  0.46284112  0.96516359  0.21667412     0.22800
C1211       C  0.53714520  0.96865267  0.35694835     0.27600
C1212       C  0.45416091  0.97281074  0.35459663     0.27600
C1213       C  0.60929679  0.94858908  0.26442327     0.36300
C1214       C  0.60461592  0.95032825  0.31945527     0.36300
C1215       C  0.39097991  0.95869630  0.25796669     0.36300
C1216       C  0.38767111  0.96119986  0.31291026     0.36300
C1217       C  0.53341472  0.96658495  0.18508364    -0.21200
C1218       C  0.48089619  0.96883522  0.18372561    -0.21200
C1219       C  0.52215644  0.98159853  0.38654766    -0.21200
C1220       C  0.46951864  0.98397030  0.38520729    -0.21200
C1221       C  0.65162058  0.93406859  0.27724966    -0.22300
C1222       C  0.64843001  0.93499203  0.31230713    -0.22300
C1223       C  0.34386617  0.94765109  0.26788938    -0.22300
C1224       C  0.34184160  0.94917878  0.30287403    -0.22300
C1225       C  0.59542856  0.95151508  0.22970090    -0.17600
C1226       C  0.41091187  0.95884981  0.22452416    -0.17600
C1227       C  0.40352300  0.96512306  0.34685116    -0.17600
C1228       C  0.58550263  0.95617318  0.35215941    -0.17600
H1229       H  0.55866121  0.96646230  0.16321986     0.15300
H1230       H  0.45812054  0.97034109  0.16064918     0.15300
H1231       H  0.54636392  0.98687072  0.40791919     0.15300
H1232       H  0.44510853  0.99152203  0.40527047     0.15300
H1233       H  0.68068556  0.92323239  0.26291797     0.13600
H1234       H  0.67465489  0.92506607  0.33036505     0.13600
H1235       H  0.31490898  0.93849458  0.25177460     0.13600
H1236       H  0.31097893  0.94164151  0.31910686     0.13600
H1237       H  0.50025958  0.95312465  0.26270228     0.26800
H1238       H  0.49458348  0.94991239  0.31749499     0.26800
N1239       N  0.51095018  0.53226129  0.33280647    -0.35900
N1240       N  0.59059252  0.53483552  0.28126750    -0.56500
N1241       N  0.50471627  0.53936582  0.23331318    -0.35900
N1242       N  0.42545500  0.53450699  0.28496979    -0.56500
C1243       C  0.55393255  0.52570115  0.35065461     0.27600
C1244       C  0.47059272  0.52586480  0.35298805     0.27600
C1245       C  0.54560300  0.53634431  0.21242608     0.27600
C1246       C  0.46172098  0.53692554  0.21407245     0.27600
C1247       C  0.61812399  0.54221662  0.30885087     0.36300
C1248       C  0.61555851  0.54548482  0.25378929     0.36300
C1249       C  0.39998651  0.54033534  0.31394174     0.36300
C1250       C  0.39597154  0.54417258  0.25874327     0.36300
C1251       C  0.54075133  0.51424874  0.38223960    -0.21200
C1252       C  0.48795854  0.51431531  0.38369983    -0.21200
C1253       C  0.52830229  0.53095480  0.17985766    -0.21200
C1254       C  0.47554926  0.53174293  0.18081856    -0.21200
C1255       C  0.66205053  0.55655215  0.29889665    -0.22300
C1256       C  0.66054863  0.55853416  0.26380815    -0.22300
C1257       C  0.35285884  0.55252899  0.30608760    -0.22300
C1258       C  0.35022721  0.55487198  0.27100377    -0.22300
C1259       C  0.60271908  0.53652905  0.34271427    -0.17600
C1260       C  0.42011675  0.53553199  0.34713356    -0.17600
C1261       C  0.41127118  0.54428400  0.22415926    -0.17600
C1262       C  0.59670807  0.54436812  0.22009510    -0.17600
H1263       H  0.56655859  0.50840200  0.40292263     0.15300
H1264       H  0.46495745  0.50834814  0.40563744     0.15300
H1265       H  0.55137348  0.52903659  0.15712480     0.15300
H1266       H  0.45020965  0.53059311  0.15899929     0.15300
H1267       H  0.69133333  0.56518552  0.31520579     0.13600
H1268       H  0.68831048  0.56922941  0.24766446     0.13600
H1269       H  0.32401734  0.55960065  0.32374789     0.13600
H1270       H  0.31905525  0.56420814  0.25629869     0.13600
H1271       H  0.50947007  0.54587061  0.31181698     0.26800
H1272       H  0.50609053  0.54815295  0.25712929     0.26800
C1273       C  0.34094642  0.92471234  0.13571714    -0.04800
C1274       C  0.32171846  0.94988307  0.14852242    -0.32200
C1275       C  0.34156912  0.96064575  0.17892882     0.37000
C1276       C  0.38086190  0.94616495  0.19666971    -0.05200
C1277       C  0.39867019  0.92071263  0.18446594    -0.32100
C1278       C  0.37995960  0.91025279  0.15416630     0.36900
H1279       H  0.29097345  0.96095028  0.13522070     0.17300
O1280       O  0.32369366  0.98559754  0.19055938    -0.59600
H1281       H  0.42948664  0.90959321  0.19771718     0.17300
O1282       O  0.40099223  0.88598544  0.14253027    -0.59700
H1283       H  0.42947344  0.89202305  0.12727635     0.44300
H1284       H  0.29307235  0.98075604  0.20450948     0.44300
C1285       C  0.34177979  0.92730328  0.43792275    -0.04800
C1286       C  0.32885938  0.95519418  0.42934452    -0.32200
C1287       C  0.34554989  0.96760131  0.39844653     0.37000
C1288       C  0.37493753  0.95201593  0.37562547    -0.05200
C1289       C  0.38741095  0.92427704  0.38404002    -0.32100
C1290       C  0.37199308  0.91204129  0.41485576     0.36900
H1291       H  0.30559200  0.96732425  0.44642765     0.17300
O1292       O  0.33463996  0.99513618  0.39132381    -0.59600
H1293       H  0.41170996  0.91242722  0.36722759     0.17300
O1294       O  0.38758982  0.88515493  0.42225743    -0.59700
H1295       H  0.41983239  0.88700751  0.43561422     0.44300
H1296       H  0.29985049  0.99504470  0.38087017     0.44300
C1297       C  0.17033565  0.82562678  0.14090747    -0.04800
C1298       C  0.14302726  0.84465946  0.16043571    -0.32200
C1299       C  0.12226552  0.83640438  0.19192706     0.37000
C1300       C  0.12673171  0.80836812  0.20355235    -0.05200
C1301       C  0.15780886  0.78999340  0.18552367    -0.32100
C1302       C  0.18045280  0.79863481  0.15452860     0.36900
H1303       H  0.13767784  0.86600429  0.15120626     0.17300
O1304       O  0.09464545  0.85528412  0.21029898    -0.59600
H1305       H  0.16285188  0.76880525  0.19513138     0.17300
O1306       O  0.21015769  0.78025154  0.13689960    -0.59700
H1307       H  0.24467170  0.78094473  0.14771704     0.44300
H1308       H  0.06251142  0.85885941  0.19716427     0.44300
C1309       C  0.12340309  0.80150694  0.37940180    -0.04800
C1310       C  0.11395000  0.78795838  0.41107153    -0.32200
C1311       C  0.13742887  0.79703012  0.44093374     0.37000
C1312       C  0.17174514  0.81958859  0.43930878    -0.05200
C1313       C  0.18362753  0.83202934  0.40746970    -0.32100
C1314       C  0.15899453  0.82358821  0.37780650     0.36900
H1315       H  0.08509581  0.77178915  0.41306178     0.17300
O1316       O  0.12530853  0.78437456  0.47157770    -0.59600
H1317       H  0.20981378  0.84961335  0.40587339     0.17300
O1318       O  0.16695512  0.83849200  0.34798300    -0.59700
H1319       H  0.13921244  0.85276800  0.34700284     0.44300
H1320       H  0.14942613  0.76835245  0.47400766     0.44300
C1321       C  0.65277017  0.92947215  0.44743763    -0.04800
C1322       C  0.67934914  0.94849086  0.42587299    -0.32200
C1323       C  0.65899415  0.95672172  0.39410504     0.37000
C1324       C  0.61182240  0.94572718  0.38346435    -0.05200
C1325       C  0.58509195  0.92696831  0.40508584    -0.32100
C1326       C  0.60470406  0.91918325  0.43701925     0.36900
H1327       H  0.71651819  0.95657373  0.43340061     0.17300
O1328       O  0.68446912  0.97606131  0.37410630    -0.59600
H1329       H  0.54822264  0.91865757  0.39725452     0.17300
O1330       O  0.57809577  0.90014080  0.45681464    -0.59700
H1331       H  0.55304969  0.91136180  0.46973864     0.44300
H1332       H  0.69973219  0.47461700  0.28893565     0.44300
C1333       C  0.67200871  0.92237007  0.14088733    -0.04800
C1334       C  0.68545109  0.94842357  0.15394104    -0.32200
C1335       C  0.66396716  0.95745131  0.18457446     0.37000
C1336       C  0.62926838  0.94017308  0.20278746    -0.05200
C1337       C  0.61809397  0.91358107  0.19062420    -0.32100
C1338       C  0.63888600  0.90469612  0.15990345     0.36900
H1339       H  0.71137284  0.96210792  0.13985043     0.17300
O1340       O  0.67464266  0.98377725  0.19542709    -0.59600
H1341       H  0.59108437  0.90019344  0.20423237     0.17300
O1342       O  0.62753207  0.87839854  0.14902394    -0.59700
H1343       H  0.59339989  0.88015352  0.13776418     0.44300
H1344       H  0.70290926  0.98129177  0.21226228     0.44300
C1345       C  0.81688905  0.82110192  0.43708750    -0.04800
C1346       C  0.84728235  0.79698401  0.43907868    -0.32200
C1347       C  0.87035614  0.78675573  0.40977202     0.37000
C1348       C  0.86236667  0.80038530  0.37784897    -0.05200
C1349       C  0.82723063  0.82256623  0.37541322    -0.32100
C1350       C  0.80416920  0.83280436  0.40469204     0.36900
H1351       H  0.85655499  0.78734328  0.46360802     0.17300
O1352       O  0.90411196  0.76482352  0.41288592    -0.59600
H1353       H  0.82078774  0.83337991  0.35119121     0.17300
O1354       O  0.77143883  0.85526168  0.40150341    -0.59700
H1355       H  0.73631115  0.84718282  0.40234913     0.44300
H1356       H  0.93510523  0.77238786  0.42421861     0.44300
C1357       C  0.86213966  0.79940368  0.20151451    -0.04800
C1358       C  0.85746956  0.78276523  0.17279155    -0.32200
C1359       C  0.83950903  0.79413449  0.14176137     0.37000
C1360       C  0.82624744  0.82266736  0.13930932    -0.05200
C1361       C  0.82652126  0.83850946  0.16901385    -0.32100
C1362       C  0.84393223  0.82703625  0.19993555     0.36900
H1363       H  0.87407768  0.76212541  0.17330895     0.17300
O1364       O  0.83886044  0.77776265  0.11361958    -0.59600
H1365       H  0.81502318  0.86028799  0.16809048     0.17300
O1366       O  0.84920506  0.84401550  0.22733442    -0.59700
H1367       H  0.81673275  0.84176046  0.24032616     0.44300
H1368       H  0.87455788  0.77830618  0.10471119     0.44300
C1369       C  0.62819756  0.55565286  0.19126251    -0.04800
C1370       C  0.67298647  0.54186894  0.18070081    -0.32200
C1371       C  0.69873304  0.55081469  0.15092918     0.37000
C1372       C  0.67864481  0.57323708  0.13093117    -0.05200
C1373       C  0.63476821  0.58733307  0.14216583    -0.32100
C1374       C  0.61012877  0.57904250  0.17224362     0.36900
H1375       H  0.68729427  0.52389200  0.19517194     0.17300
O1376       O  0.74294497  0.53736851  0.14149660    -0.59600
H1377       H  0.61992121  0.60527359  0.12784179     0.17300
O1378       O  0.56836314  0.59398765  0.18315131    -0.59700
H1379       H  0.54015781  0.59001786  0.16689676     0.44300
H1380       H  0.73248965  0.52495584  0.12288990     0.44300
C1381       C  0.63051277  0.54890462  0.37153640    -0.04800
C1382       C  0.66800174  0.53360642  0.38981580    -0.32200
C1383       C  0.68724943  0.54361571  0.42060395     0.37000
C1384       C  0.66824298  0.56889059  0.43341879    -0.05200
C1385       C  0.63039694  0.58383868  0.41529839    -0.32100
C1386       C  0.61173879  0.57410063  0.38450795     0.36900
H1387       H  0.68127672  0.51370660  0.38062537     0.17300
O1388       O  0.72431313  0.52858509  0.43806613    -0.59600
H1389       H  0.61641815  0.60360435  0.42450751     0.17300
O1390       O  0.57469109  0.58922974  0.36715788    -0.59700
H1391       H  0.54176075  0.58407822  0.37834170     0.44300
H1392       H  0.70522241  0.51698689  0.45507049     0.44300
C1393       C  0.88912023  0.69867514  0.18498257    -0.04800
C1394       C  0.84213790  0.70863604  0.17158937    -0.32200
C1395       C  0.82213155  0.69802719  0.14116185     0.37000
C1396       C  0.84843333  0.67654648  0.12431730    -0.05200
C1397       C  0.89381094  0.66565738  0.13891267    -0.32100
C1398       C  0.91425996  0.67656722  0.16867512     0.36900
H1399       H  0.82138487  0.72493940  0.18435829     0.17300
O1400       O  0.77648908  0.70842238  0.12851612    -0.59600
H1401       H  0.91388442  0.64861069  0.12703498     0.17300
O1402       O  0.95886439  0.66529591  0.18202520    -0.59700
H1403       H  0.98676205  0.67180287  0.16656386     0.44300
H1404       H  0.74945955  0.69627071  0.13873698     0.44300
C1405       C  0.84680117  0.67901520  0.42672083    -0.04800
C1406       C  0.82563221  0.70285610  0.41017429    -0.32200
C1407       C  0.84756795  0.71377557  0.37975690     0.37000
C1408       C  0.89172787  0.70116948  0.36595631    -0.05200
C1409       C  0.91245510  0.67742603  0.38260568    -0.32100
C1410       C  0.89090744  0.66657877  0.41262607     0.36900
H1411       H  0.79141891  0.71256384  0.42030181     0.17300
O1412       O  0.82639244  0.73704359  0.36425060    -0.59600
H1413       H  0.94665350  0.66758147  0.37259176     0.17300
O1414       O  0.91370528  0.64373239  0.42822415    -0.59700
H1415       H  0.93911564  0.65149159  0.44432211     0.44300
H1416       H  0.79828090  0.72995577  0.34970849     0.44300
C1417       C  0.35184130  0.56527942  0.43883243    -0.04800
C1418       C  0.32927887  0.54265758  0.42223503    -0.32200
C1419       C  0.35017757  0.53288007  0.39188858     0.37000
C1420       C  0.39326582  0.54621779  0.37744846    -0.05200
C1421       C  0.41575494  0.56873222  0.39420638    -0.32100
C1422       C  0.39587736  0.57802605  0.42485186     0.36900
H1423       H  0.29499527  0.53280736  0.43261385     0.17300
O1424       O  0.32908578  0.51004165  0.37700004    -0.59600
H1425       H  0.44922366  0.57906248  0.38342315     0.17300
O1426       O  0.41755725  0.60085416  0.43962123    -0.59700
H1427       H  0.44474744  0.59316063  0.45499293     0.44300
H1428       H  0.29570964  0.51662662  0.36739319     0.44300
C1429       C  0.37684611  0.55598470  0.19670542    -0.04800
C1430       C  0.39186766  0.58094165  0.18007198    -0.32200
C1431       C  0.36902298  0.58969875  0.14931372     0.37000
C1432       C  0.32966165  0.57371115  0.13463576    -0.05200
C1433       C  0.31163846  0.54987516  0.15260886    -0.32100
C1434       C  0.33537600  0.54080220  0.18330260     0.36900
H1435       H  0.42336509  0.59302926  0.19022920     0.17300
O1436       O  0.38459549  0.61439704  0.13415497    -0.59600
H1437       H  0.28025210  0.53784634  0.14230313     0.17300
O1438       O  0.31966198  0.51640162  0.19896053    -0.59700
H1439       H  0.29222934  0.52192054  0.21496082     0.44300
H1440       H  0.41691566  0.60988598  0.12206022     0.44300
C1441       C  0.13704075  0.69721163  0.35954126    -0.04800
C1442       C  0.12649803  0.66930576  0.36817449    -0.32200
C1443       C  0.14467150  0.65712812  0.39858336     0.37000
C1444       C  0.17505524  0.67274754  0.42127865    -0.05200
C1445       C  0.18663026  0.70069997  0.41222721    -0.32100
C1446       C  0.16801295  0.71287953  0.38151353     0.36900
H1447       H  0.10159750  0.65724437  0.35195574     0.17300
O1448       O  0.13090866  0.63004178  0.40624387    -0.59600
H1449       H  0.21000547  0.71313377  0.42894436     0.17300
O1450       O  0.17803042  0.74042582  0.37401172    -0.59700
H1451       H  0.21105293  0.74038632  0.36140827     0.44300
H1452       H  0.09820938  0.63141781  0.41909529     0.44300
C1453       C  0.16087333  0.67343691  0.11851945    -0.04800
C1454       C  0.13544125  0.65739162  0.14393991    -0.32200
C1455       C  0.11770783  0.66944922  0.17380269     0.37000
C1456       C  0.12463484  0.69813807  0.17895923    -0.05200
C1457       C  0.14977894  0.71426188  0.15373938    -0.32100
C1458       C  0.16804129  0.70223118  0.12385106     0.36900
H1459       H  0.12923521  0.63523185  0.14087266     0.17300
O1460       O  0.09155608  0.65321650  0.19725490    -0.59600
H1461       H  0.15382779  0.73641796  0.15657473     0.17300
O1462       O  0.19331712  0.71882409  0.10035858    -0.59700
H1463       H  0.16578844  0.72766704  0.08620216     0.44300
H1464       H  0.11859986  0.64411885  0.21158655     0.44300
N1465       N  0.58523854  0.74687373  0.03531149    -0.35900
N1466       N  0.50536295  0.70190775  0.03631209    -0.56500
N1467       N  0.42540001  0.74519665  0.53365679    -0.35900
N1468       N  0.50559963  0.78941649  0.53703511    -0.56500
C1469       C  0.61231395  0.72338042  0.04418286     0.27600
C1470       C  0.61165806  0.76905428  0.54403382     0.27600
C1471       C  0.39750563  0.72222064  0.04300863     0.27600
C1472       C  0.39809390  0.76793401  0.54331323     0.27600
C1473       C  0.54831437  0.68718976  0.02763751     0.36300
C1474       C  0.46314781  0.68653379  0.02768399     0.36300
C1475       C  0.54715956  0.80606944  0.53096853     0.36300
C1476       C  0.46291936  0.80505934  0.53025412     0.36300
C1477       C  0.65588576  0.73107012  0.06222079    -0.21200
C1478       C  0.65492166  0.75920511  0.56136436    -0.21200
C1479       C  0.35167696  0.73033318  0.05814782    -0.21200
C1480       C  0.35217182  0.75916590  0.55785049    -0.21200
C1481       C  0.53294694  0.66237452  0.01321504    -0.22300
C1482       C  0.47973885  0.66195849  0.01327384    -0.22300
C1483       C  0.53032220  0.83231851  0.51978319    -0.22300
C1484       C  0.47730012  0.83172474  0.51974469    -0.22300
C1485       C  0.60077711  0.69550742  0.03409528    -0.17600
C1486       C  0.59932948  0.79799839  0.53790480    -0.17600
C1487       C  0.41139709  0.79638262  0.53655478    -0.17600
C1488       C  0.41019957  0.69427588  0.03359329    -0.17600
H1489       H  0.68469001  0.71746290  0.07377880     0.15300
H1490       H  0.68353148  0.77120969  0.57463999     0.15300
H1491       H  0.32087576  0.71712846  0.06759460     0.15300
H1492       H  0.32189251  0.77211754  0.56790149     0.15300
H1493       H  0.55700980  0.64629031  0.00278591     0.13600
H1494       H  0.45643330  0.64555007  0.00286641     0.13600
H1495       H  0.55308384  0.85022956  0.51208048     0.13600
H1496       H  0.45221256  0.84907548  0.51292572     0.13600
H1497       H  0.55318164  0.74760635  0.01926869     0.26800
H1498       H  0.45879131  0.74576853  0.51902060     0.26800
N1499       N  0.08414339  0.99612411  0.99876169    -0.35900
N1500       N  0.00551313  0.53621482  0.01585590    -0.56500
N1501       N  0.92465933  0.99735300  0.99901876    -0.35900
N1502       N  0.00534060  0.95400453  0.51772342    -0.56500
C1503       C  0.11096857  0.51753442  0.99726157     0.27600
C1504       C  0.11381531  0.97131506  0.50147567     0.27600
C1505       C  0.89499732  0.51953321  0.00599943     0.27600
C1506       C  0.89495466  0.97399802  0.50728764     0.27600
C1507       C  0.04877013  0.55067414  0.02351874     0.36300
C1508       C  0.96467233  0.55178685  0.02577378     0.36300
C1509       C  0.04771795  0.93929909  0.52841955     0.36300
C1510       C  0.96284448  0.94031559  0.52978239     0.36300
C1511       C  0.15497401  0.51258120  0.97849408    -0.21200
C1512       C  0.16040168  0.97614793  0.48487486    -0.21200
C1513       C  0.84468579  0.51408727  0.99607925    -0.21200
C1514       C  0.84447652  0.98096683  0.49864864    -0.21200
C1515       C  0.03517779  0.57559893  0.03839081    -0.22300
C1516       C  0.98220918  0.57630888  0.03975226    -0.22300
C1517       C  0.03156664  0.91624604  0.54776867    -0.22300
C1518       C  0.97837707  0.91672390  0.54821493    -0.22300
C1519       C  0.09958490  0.54344946  0.01330033    -0.17600
C1520       C  0.10028056  0.94564434  0.51936425    -0.17600
C1521       C  0.91021208  0.94777714  0.52282219    -0.17600
C1522       C  0.91192696  0.54556031  0.01934483    -0.17600
H1523       H  0.18533448  0.52717099  0.97198898     0.15300
H1524       H  0.19144544  0.96153049  0.48088769     0.15300
H1525       H  0.81206269  0.52817235  0.99641245     0.15300
H1526       H  0.81047877  0.96812145  0.50163020     0.15300
H1527       H  0.06051777  0.59216276  0.04623366     0.13600
H1528       H  0.95928560  0.59338093  0.04906274     0.13600
H1529       H  0.05515752  0.90054434  0.56050771     0.13600
H1530       H  0.95395349  0.90141379  0.56085799     0.13600
H1531       H  0.04964123  0.99986644  0.01120422     0.26800
H1532       H  0.96331081  0.99895677  0.00509516     0.26800
Zn1533     Zn  0.32642075  0.61197956  0.03172838     1.49700
Zn1534     Zn  0.22181477  0.60411677  0.98458703     1.49400
Zn1535     Zn  0.21049590  0.60148810  0.56411284     1.49100
Zn1536     Zn  0.24758934  0.66182939  0.02261583     1.49500
O1537       O  0.25209089  0.62022503  0.02541085    -1.83500
O1538       O  0.34857604  0.58847015  0.99169862    -0.74100
O1539       O  0.16302903  0.57572712  0.99068839    -0.73900
O1540       O  0.25794350  0.58323768  0.59938390    -0.73400
O1541       O  0.27666767  0.58433960  0.96080441    -0.74100
O1542       O  0.33636112  0.59213946  0.57881487    -0.73700
O1543       O  0.15482447  0.57262939  0.54915678    -0.74300
O1544       O  0.20407975  0.67265061  0.56605359    -0.73700
O1545       O  0.19822303  0.63466462  0.95266298    -0.74400
O1546       O  0.17738178  0.63240032  0.58983076    -0.73800
O1547       O  0.21280768  0.67529097  0.97685835    -0.74300
O1548       O  0.31979383  0.68132835  0.02530055    -0.74200
O1549       O  0.37485512  0.64673466  0.03331165    -0.74000
C1550       C  0.32438660  0.57993937  0.96551054     0.77800
C1551       C  0.14179184  0.56502637  0.01712273     0.78300
C1552       C  0.30681666  0.58286975  0.60248413     0.77200
C1553       C  0.17990422  0.65902793  0.58957731     0.77600
C1554       C  0.19637441  0.66122869  0.95169808     0.78800
C1555       C  0.36619145  0.67295899  0.03038090     0.77800
Zn1556     Zn  0.79886736  0.60536443  0.56382050     1.49700
Zn1557     Zn  0.76487604  0.66497939  0.02680188     1.49400
Zn1558     Zn  0.79434860  0.60735468  0.98859138     1.49100
Zn1559     Zn  0.68743385  0.61427590  0.03083175     1.49500
O1560       O  0.76169468  0.62336223  0.02833780    -1.83500
O1561       O  0.82779547  0.63594195  0.59158430    -0.74100
O1562       O  0.80278926  0.67838514  0.98231529    -0.73900
O1563       O  0.85128875  0.57878581  0.99661692    -0.73400
O1564       O  0.79959285  0.67659431  0.56928325    -0.74100
O1565       O  0.85629431  0.57702965  0.55096537    -0.73700
O1566       O  0.82184070  0.63778134  0.95889767    -0.74300
O1567       O  0.66780868  0.59194837  0.98903811    -0.73700
O1568       O  0.69192031  0.68374671  0.02755309    -0.74400
O1569       O  0.74243428  0.58788335  0.96161960    -0.73800
O1570       O  0.63805518  0.64845133  0.03314645    -0.74300
O1571       O  0.67282635  0.59323272  0.57298987    -0.74200
O1572       O  0.75017074  0.58590555  0.59636873    -0.74000
C1573       C  0.82308541  0.66240956  0.59276166     0.77800
C1574       C  0.82281500  0.66432616  0.95830445     0.78300
C1575       C  0.87229946  0.56834476  0.02329635     0.77200
C1576       C  0.69444433  0.58352272  0.96394380     0.77600
C1577       C  0.64573463  0.67476832  0.03127165     0.78800
C1578       C  0.70130398  0.58416117  0.59741636     0.77800
Zn1579     Zn  0.67686419  0.88181764  0.54335017     1.49700
Zn1580     Zn  0.79079167  0.89384788  0.57532983     1.49400
Zn1581     Zn  0.75815992  0.83397910  0.53921531     1.49100
Zn1582     Zn  0.78101161  0.89209662  0.99642227     1.49500
O1583       O  0.75153139  0.87520869  0.53929398    -1.83500
O1584       O  0.66441118  0.90047171  0.58872227    -0.74100
O1585       O  0.81461172  0.86290419  0.60658460    -0.73900
O1586       O  0.68913417  0.81268586  0.53723337    -0.73400
O1587       O  0.74180359  0.91480602  0.60594149    -0.74100
O1588       O  0.63154076  0.84585719  0.54305899    -0.73700
O1589       O  0.79237907  0.82228690  0.58394150    -0.74300
O1590       O  0.79747772  0.86185199  0.96468757    -0.73700
O1591       O  0.85267306  0.91981579  0.55941923    -0.74400
O1592       O  0.79383863  0.82181352  0.99467396    -0.73800
O1593       O  0.84394622  0.91750088  0.00176075    -0.74300
O1594       O  0.72728895  0.91403294  0.97254747    -0.74200
O1595       O  0.65442972  0.90607513  0.00106772    -0.74000
C1596       C  0.69324181  0.91267859  0.61017400     0.77800
C1597       C  0.81086909  0.83633587  0.60836848     0.78300
C1598       C  0.64205561  0.82000684  0.53956954     0.77200
C1599       C  0.80173536  0.83541499  0.96676744     0.77600
C1600       C  0.86780007  0.92652313  0.52927093     0.78800
C1601       C  0.67888508  0.91665853  0.97561968     0.77800
Zn1602     Zn  0.29294007  0.85422188  0.57485219     1.49700
Zn1603     Zn  0.26096517  0.91365797  0.53611315     1.49400
Zn1604     Zn  0.29286752  0.85609098  0.00021344     1.49100
Zn1605     Zn  0.18200991  0.86284920  0.53615968     1.49500
O1606       O  0.25639289  0.87200113  0.53621723    -1.83500
O1607       O  0.32046839  0.88444279  0.60308229    -0.74100
O1608       O  0.29983774  0.92705956  0.99390457    -0.73900
O1609       O  0.35093291  0.82755829  0.01099631    -0.73400
O1610       O  0.29605843  0.92564358  0.58078616    -0.74100
O1611       O  0.35121489  0.82636298  0.56469062    -0.73700
O1612       O  0.32051102  0.88645023  0.97123209    -0.74300
O1613       O  0.16646036  0.83887556  0.99728855    -0.73700
O1614       O  0.18937768  0.93298217  0.53216921    -0.74400
O1615       O  0.24211224  0.83840319  0.97045057    -0.73800
O1616       O  0.13460301  0.89805753  0.52780046    -0.74300
O1617       O  0.16593440  0.84484511  0.58339436    -0.74200
O1618       O  0.24326352  0.83499191  0.60580872    -0.74000
C1619       C  0.31807503  0.91093137  0.60435132     0.77800
C1620       C  0.31998390  0.91296683  0.97007022     0.78300
C1621       C  0.36924930  0.81800217  0.53659115     0.77200
C1622       C  0.19440671  0.83283209  0.97169826     0.77600
C1623       C  0.14339205  0.92438251  0.52723726     0.78800
C1624       C  0.19444423  0.83480545  0.60749710     0.77800
N1625       N  0.01021136  0.71899499  0.82207432    -0.35900
N1626       N  0.92351755  0.71761860  0.77436329    -0.56500
N1627       N  0.00295298  0.71738522  0.72232902    -0.35900
N1628       N  0.08928392  0.71921635  0.76942642    -0.56500
C1629       C  0.96957681  0.72118323  0.84339223     0.27600
C1630       C  0.05361211  0.72230409  0.84080872     0.27600
C1631       C  0.95946721  0.72228710  0.70421515     0.27600
C1632       C  0.04311272  0.72291435  0.70145849     0.27600
C1633       C  0.89911256  0.70887736  0.80309656     0.36300
C1634       C  0.89559827  0.70834729  0.74773907     0.36300
C1635       C  0.11817010  0.71076408  0.79655388     0.36300
C1636       C  0.11351563  0.71016397  0.74125610     0.36300
C1637       C  0.98752807  0.72714787  0.87567913    -0.21200
C1638       C  0.04013607  0.72786617  0.87405310    -0.21200
C1639       C  0.97212762  0.73194690  0.67172631    -0.21200
C1640       C  0.02492124  0.73238913  0.66999922    -0.21200
C1641       C  0.85392397  0.69526310  0.79463773    -0.22300
C1642       C  0.85178826  0.69486611  0.75949396    -0.22300
C1643       C  0.16252257  0.69770101  0.78545259    -0.22300
C1644       C  0.15954686  0.69730348  0.75035687    -0.22300
C1645       C  0.91879898  0.71175794  0.83660310    -0.17600
C1646       C  0.10359069  0.71363405  0.83109580    -0.17600
C1647       C  0.09347837  0.71300858  0.70769712    -0.17600
C1648       C  0.91097586  0.71119269  0.71324968    -0.17600
H1649       H  0.96567956  0.72745560  0.89897184     0.15300
H1650       H  0.06545906  0.72899258  0.89582838     0.15300
H1651       H  0.94610720  0.73592411  0.65057356     0.15300
H1652       H  0.04705485  0.73716539  0.64733059     0.15300
H1653       H  0.82639597  0.68569022  0.81194056     0.13600
H1654       H  0.82225477  0.68510717  0.74439972     0.13600
H1655       H  0.19299438  0.68864070  0.80104803     0.13600
H1656       H  0.18733433  0.68798806  0.73356308     0.13600
H1657       H  0.00878244  0.70997191  0.79845087     0.26800
H1658       H  0.00499837  0.70484463  0.74427652     0.26800
N1659       N  0.99781100  0.78890937  0.73791783    -0.35900
N1660       N  0.91683059  0.78872537  0.78961373    -0.56500
N1661       N  0.99473182  0.79359864  0.84123946    -0.35900
N1662       N  0.07564185  0.79485597  0.79048261    -0.56500
C1663       C  0.95548627  0.79288517  0.71809674     0.27600
C1664       C  0.03906516  0.79613480  0.71850507     0.27600
C1665       C  0.95186516  0.80193343  0.85767872     0.27600
C1666       C  0.03513767  0.80425019  0.85831713     0.27600
C1667       C  0.88695858  0.78504754  0.76198302     0.36300
C1668       C  0.88560538  0.78680034  0.81701112     0.36300
C1669       C  0.10733132  0.79381834  0.76336003     0.36300
C1670       C  0.10565781  0.79350312  0.81861742     0.36300
C1671       C  0.97054651  0.80124052  0.68549135    -0.21200
C1672       C  0.02277336  0.80262661  0.68556621    -0.21200
C1673       C  0.96529761  0.81852238  0.88474209    -0.21200
C1674       C  0.01773249  0.81991833  0.88519206    -0.21200
C1675       C  0.83647566  0.78022895  0.77182484    -0.22300
C1676       C  0.83564624  0.78122887  0.80681565    -0.22300
C1677       C  0.15796844  0.79149011  0.77423343    -0.22300
C1678       C  0.15685260  0.79076040  0.80934807    -0.22300
C1679       C  0.90329913  0.78993879  0.72815170    -0.17600
C1680       C  0.09113056  0.79804777  0.72927590    -0.17600
C1681       C  0.08757449  0.79906896  0.85169632    -0.17600
C1682       C  0.90085327  0.79402445  0.85013428    -0.17600
H1683       H  0.94680178  0.80635554  0.66356541     0.15300
H1684       H  0.04576722  0.80841063  0.66359778     0.15300
H1685       H  0.93995655  0.82861650  0.90248995     0.15300
H1686       H  0.04048611  0.83128697  0.90332721     0.15300
H1687       H  0.80343177  0.77748343  0.75539466     0.13600
H1688       H  0.80172123  0.77967107  0.82266886     0.13600
H1689       H  0.19212748  0.79103291  0.75854194     0.13600
H1690       H  0.19011214  0.79005474  0.82600095     0.13600
H1691       H  0.99848735  0.78088361  0.76270126     0.26800
H1692       H  0.99666790  0.77896781  0.82212452     0.26800
N1693       N  0.49931409  0.96205802  0.73819300    -0.35900
N1694       N  0.57780610  0.96059443  0.79035783    -0.56500
N1695       N  0.49170768  0.96428010  0.83732987    -0.35900
N1696       N  0.41252330  0.96744530  0.78536735    -0.56500
C1697       C  0.54264278  0.96279342  0.71903197     0.27600
C1698       C  0.45891593  0.96588009  0.71678989     0.22800
C1699       C  0.53287149  0.96955683  0.85704246     0.27600
C1700       C  0.44976455  0.97268992  0.85446183     0.27600
C1701       C  0.60562289  0.95022817  0.76455377     0.36300
C1702       C  0.60095880  0.95192740  0.81960387     0.36300
C1703       C  0.38727417  0.95800751  0.75787515     0.36300
C1704       C  0.38390194  0.96003865  0.81285650     0.36300
C1705       C  0.52956409  0.96820223  0.68530229    -0.21200
C1706       C  0.47697420  0.97001034  0.68391785    -0.21200
C1707       C  0.51714259  0.98223452  0.88665515    -0.21200
C1708       C  0.46441242  0.98395914  0.88516495    -0.21200
C1709       C  0.64817098  0.93590078  0.77736397    -0.22300
C1710       C  0.64498160  0.93678327  0.81241628    -0.22300
C1711       C  0.34093978  0.94597501  0.76773508    -0.22300
C1712       C  0.33889126  0.94719253  0.80276363    -0.22300
C1713       C  0.59176660  0.95313018  0.72981276    -0.17600
C1714       C  0.40726046  0.95875665  0.72443961    -0.17600
C1715       C  0.39967863  0.96402124  0.84677492    -0.17600
C1716       C  0.58166441  0.95755986  0.85234025    -0.17600
H1717       H  0.55484280  0.96839648  0.66345514     0.15300
H1718       H  0.45421010  0.97139297  0.66083255     0.15300
H1719       H  0.54095373  0.98766010  0.90815742     0.15300
H1720       H  0.43945779  0.99099637  0.90524026     0.15300
H1721       H  0.67739444  0.92519807  0.76302391     0.13600
H1722       H  0.67131026  0.92689841  0.83043642     0.13600
H1723       H  0.31261947  0.93635437  0.75154431     0.13600
H1724       H  0.30863681  0.93890058  0.81897478     0.13600
H1725       H  0.49660570  0.95375088  0.76269566     0.26800
H1726       H  0.49133797  0.95036305  0.81745235     0.26800
N1727       N  0.51261896  0.53504613  0.83276097    -0.35900
N1728       N  0.59215178  0.53867584  0.78149250    -0.56500
N1729       N  0.50629747  0.54109558  0.73346574    -0.35900
N1730       N  0.42719966  0.53540195  0.78500294    -0.56500
C1731       C  0.55582484  0.52904152  0.85061556     0.27600
C1732       C  0.47256934  0.52799409  0.85287261     0.27600
C1733       C  0.54733742  0.53865650  0.71260513     0.27600
C1734       C  0.46352143  0.53785308  0.71423705     0.27600
C1735       C  0.61911136  0.54673948  0.80899634     0.36300
C1736       C  0.61647707  0.54952689  0.75390493     0.36300
C1737       C  0.40139717  0.54118546  0.81380965     0.36300
C1738       C  0.39733598  0.54442765  0.75870647     0.36300
C1739       C  0.54312523  0.51725805  0.88212515    -0.21200
C1740       C  0.49034753  0.51662293  0.88356556    -0.21200
C1741       C  0.53038827  0.53287100  0.68006395    -0.21200
C1742       C  0.47763639  0.53279383  0.68102490    -0.21200
C1743       C  0.66206551  0.56187916  0.79890947    -0.22300
C1744       C  0.66054480  0.56353677  0.76376490    -0.22300
C1745       C  0.35373580  0.55268072  0.80581441    -0.22300
C1746       C  0.35105456  0.55461550  0.77074456    -0.22300
C1747       C  0.60398483  0.54073154  0.84283256    -0.17600
C1748       C  0.42172259  0.53694621  0.84695406    -0.17600
C1749       C  0.41275936  0.54448509  0.72423963    -0.17600
C1750       C  0.59798215  0.54743642  0.72024378    -0.17600
H1751       H  0.56915739  0.51173613  0.90281096     0.15300
H1752       H  0.46755104  0.51030094  0.90545902     0.15300
H1753       H  0.55355431  0.53126898  0.65733164     0.15300
H1754       H  0.45236816  0.53123546  0.65922847     0.15300
H1755       H  0.69072074  0.57117727  0.81514157     0.13600
H1756       H  0.68766672  0.57455869  0.74745318     0.13600
H1757       H  0.32457379  0.55958773  0.82334357     0.13600
H1758       H  0.31949684  0.56337837  0.75588859     0.13600
H1759       H  0.51048345  0.54877792  0.81190251     0.26800
H1760       H  0.50712395  0.55000998  0.75721407     0.26800
C1761       C  0.34029925  0.92395565  0.63499069    -0.04800
C1762       C  0.32008266  0.94898280  0.64761038    -0.32200
C1763       C  0.33880772  0.95988447  0.67824255     0.37000
C1764       C  0.37810330  0.94574342  0.69639177    -0.05200
C1765       C  0.39701070  0.92046812  0.68432463    -0.32100
C1766       C  0.37926487  0.90982064  0.65384712     0.36900
H1767       H  0.28940621  0.95984268  0.63398230     0.17300
O1768       O  0.31981355  0.98465769  0.68968871    -0.59600
H1769       H  0.42789630  0.90964073  0.69785902     0.17300
O1770       O  0.40118494  0.88570482  0.64245120    -0.59700
H1771       H  0.43029238  0.89193387  0.62784439     0.44300
H1772       H  0.29014762  0.97942198  0.70433280     0.44300
C1773       C  0.34077901  0.92687204  0.93886794    -0.04800
C1774       C  0.32334171  0.95358951  0.92829093    -0.32200
C1775       C  0.33893053  0.96544970  0.89687901     0.37000
C1776       C  0.37198817  0.95051295  0.87563613    -0.05200
C1777       C  0.38881225  0.92383885  0.88598167    -0.32100
C1778       C  0.37421193  0.91215192  0.91728247     0.36900
H1779       H  0.29723953  0.96515094  0.94417339     0.17300
O1780       O  0.32331910  0.99194896  0.88776713    -0.59600
H1781       H  0.41574960  0.91257473  0.87032603     0.17300
O1782       O  0.39363832  0.88638912  0.92664381    -0.59700
H1783       H  0.42494201  0.89028563  0.94024243     0.44300
H1784       H  0.29377853  0.98935417  0.87211481     0.44300
C1785       C  0.17131615  0.82505785  0.63989860    -0.04800
C1786       C  0.14356207  0.84427914  0.65890202    -0.32200
C1787       C  0.12303438  0.83652663  0.69065270     0.37000
C1788       C  0.12832677  0.80878596  0.70323071    -0.05200
C1789       C  0.15937559  0.79014255  0.68550024    -0.32100
C1790       C  0.18174404  0.79831812  0.65422454     0.36900
H1791       H  0.13770557  0.86541251  0.64906250     0.17300
O1792       O  0.09481552  0.85558619  0.70835038    -0.59600
H1793       H  0.16453172  0.76902345  0.69542271     0.17300
O1794       O  0.21143091  0.77965402  0.63702536    -0.59700
H1795       H  0.24658862  0.78159842  0.64658932     0.44300
H1796       H  0.06222259  0.85818712  0.69540354     0.44300
C1797       C  0.12377351  0.80385633  0.88044753    -0.04800
C1798       C  0.11566545  0.78933366  0.91168085    -0.32200
C1799       C  0.13851378  0.79824944  0.94182078     0.37000
C1800       C  0.17116622  0.82150497  0.94084329    -0.05200
C1801       C  0.18144572  0.83516890  0.90949940    -0.32100
C1802       C  0.15707430  0.82698574  0.87963272     0.36900
H1803       H  0.08843313  0.77233375  0.91312198     0.17300
O1804       O  0.12743785  0.78472299  0.97211383    -0.59600
H1805       H  0.20618453  0.85338201  0.90853012     0.17300
O1806       O  0.16304924  0.84299090  0.85043708    -0.59700
H1807       H  0.13410450  0.85654721  0.85042692     0.44300
H1808       H  0.15216859  0.76893147  0.97377504     0.44300
C1809       C  0.65109032  0.93002851  0.94675053    -0.04800
C1810       C  0.67721969  0.94918017  0.92512866    -0.32200
C1811       C  0.65595815  0.95782916  0.89376825     0.37000
C1812       C  0.60824333  0.94718695  0.88362800    -0.05200
C1813       C  0.58185138  0.92839356  0.90540590    -0.32100
C1814       C  0.60243255  0.92014996  0.93691911     0.36900
H1815       H  0.71476828  0.95700562  0.93224533     0.17300
O1816       O  0.68121321  0.97713984  0.87360816    -0.59600
H1817       H  0.54465304  0.92027222  0.89795229     0.17300
O1818       O  0.57617342  0.90101731  0.95679532    -0.59700
H1819       H  0.55221906  0.91222990  0.97057812     0.44300
H1820       H  0.69510479  0.47550109  0.79136438     0.44300
C1821       C  0.67026884  0.92285243  0.64204560    -0.04800
C1822       C  0.68110128  0.94977442  0.65352895    -0.32200
C1823       C  0.65878250  0.95936653  0.68364551     0.37000
C1824       C  0.62582349  0.94182477  0.70293987    -0.05200
C1825       C  0.61718695  0.91448976  0.69232517    -0.32100
C1826       C  0.63891450  0.90500095  0.66213563     0.36900
H1827       H  0.70555976  0.96365501  0.63857249     0.17300
O1828       O  0.66685215  0.98640632  0.69287430    -0.59600
H1829       H  0.59162148  0.90085305  0.70679355     0.17300
O1830       O  0.63025320  0.87798017  0.65283091    -0.59700
H1831       H  0.59604090  0.87828907  0.64153636     0.44300
H1832       H  0.69264493  0.98524109  0.71152177     0.44300
C1833       C  0.81653501  0.82064130  0.93573526    -0.04800
C1834       C  0.84535340  0.79598289  0.93845743    -0.32200
C1835       C  0.86856506  0.78499820  0.90964000     0.37000
C1836       C  0.86212017  0.79834196  0.87740312    -0.05200
C1837       C  0.82825654  0.82106688  0.87419108    -0.32100
C1838       C  0.80525692  0.83214950  0.90302511     0.36900
H1839       H  0.85349454  0.78647281  0.96323386     0.17300
O1840       O  0.90135184  0.76272659  0.91363456    -0.59600
H1841       H  0.82305605  0.83169740  0.84972360     0.17300
O1842       O  0.77407808  0.85518097  0.89908680    -0.59700
H1843       H  0.73846989  0.84773033  0.89898761     0.44300
H1844       H  0.93235533  0.77011052  0.92513486     0.44300
C1845       C  0.86443572  0.79823107  0.70205175    -0.04800
C1846       C  0.85797695  0.78181037  0.67332161    -0.32200
C1847       C  0.83880492  0.79343848  0.64275154     0.37000
C1848       C  0.82621558  0.82208135  0.64071893    -0.05200
C1849       C  0.82859965  0.83781227  0.67047882    -0.32100
C1850       C  0.84723469  0.82605857  0.70095317     0.36900
H1851       H  0.87393044  0.76106084  0.67341823     0.17300
O1852       O  0.83627332  0.77715888  0.61457265    -0.59600
H1853       H  0.81786847  0.85970334  0.66990090     0.17300
O1854       O  0.85452385  0.84287810  0.72830407    -0.59700
H1855       H  0.82317145  0.84041463  0.74240510     0.44300
H1856       H  0.87106438  0.77819608  0.60426461     0.44300
C1857       C  0.62923594  0.55823838  0.69115475    -0.04800
C1858       C  0.67127493  0.54291690  0.67910653    -0.32200
C1859       C  0.69536061  0.55087320  0.64837175     0.37000
C1860       C  0.67657386  0.57403043  0.62912696    -0.05200
C1861       C  0.63523794  0.58951958  0.64167181    -0.32100
C1862       C  0.61198397  0.58199072  0.67251504     0.36900
H1863       H  0.68434270  0.52437996  0.69302162     0.17300
O1864       O  0.73636207  0.53560905  0.63707724    -0.59600
H1865       H  0.62131160  0.60786514  0.62771592     0.17300
O1866       O  0.57196660  0.59781250  0.68430758    -0.59700
H1867       H  0.54193261  0.59323038  0.66983223     0.44300
H1868       H  0.72183970  0.52313446  0.61973281     0.44300
C1869       C  0.63164616  0.55273516  0.87194366    -0.04800
C1870       C  0.67175052  0.53797494  0.88822312    -0.32200
C1871       C  0.69098515  0.54689718  0.91951087     0.37000
C1872       C  0.66945588  0.57056212  0.93485011    -0.05200
C1873       C  0.62897378  0.58494348  0.91873482    -0.32100
C1874       C  0.61028006  0.57629689  0.88743412     0.36900
H1875       H  0.68706502  0.51922197  0.87712070     0.17300
O1876       O  0.73060883  0.53238086  0.93498127    -0.59600
H1877       H  0.61294227  0.60352166  0.92986612     0.17300
O1878       O  0.57057329  0.59081770  0.87208622    -0.59700
H1879       H  0.53932306  0.58493238  0.88475656     0.44300
H1880       H  0.71380821  0.51920234  0.95135905     0.44300
C1881       C  0.88272830  0.69690640  0.68542613    -0.04800
C1882       C  0.83820049  0.70849016  0.67025244    -0.32200
C1883       C  0.81956654  0.69856623  0.63906354     0.37000
C1884       C  0.84436145  0.67597160  0.62338433    -0.05200
C1885       C  0.88702748  0.66351985  0.63979820    -0.32100
C1886       C  0.90634807  0.67386014  0.67018911     0.36900
H1887       H  0.81849530  0.72559672  0.68214109     0.17300
O1888       O  0.77696359  0.71091152  0.62439786    -0.59600
H1889       H  0.90604263  0.64572384  0.62880904     0.17300
O1890       O  0.94880570  0.66135912  0.68495903    -0.59700
H1891       H  0.97858565  0.66791942  0.67117958     0.44300
H1892       H  0.74730378  0.69976524  0.63289353     0.44300
C1893       C  0.84791916  0.67807303  0.92830045    -0.04800
C1894       C  0.82622992  0.70177535  0.91181352    -0.32200
C1895       C  0.84678915  0.71226852  0.88081810     0.37000
C1896       C  0.89019429  0.69943985  0.86640067    -0.05200
C1897       C  0.91143237  0.67577089  0.88288516    -0.32100
C1898       C  0.89112858  0.66526462  0.91346383     0.36900
H1899       H  0.79257377  0.71168063  0.92243424     0.17300
O1900       O  0.82504214  0.73537621  0.86532284    -0.59600
H1901       H  0.94513091  0.66579837  0.87234931     0.17300
O1902       O  0.91417748  0.64238360  0.92882398    -0.59700
H1903       H  0.94169223  0.65006122  0.94341835     0.44300
H1904       H  0.79685095  0.72809257  0.85100001     0.44300
C1905       C  0.35215148  0.56659710  0.93790801    -0.04800
C1906       C  0.32963710  0.54404163  0.92113700    -0.32200
C1907       C  0.35103578  0.53423269  0.89098465     0.37000
C1908       C  0.39444059  0.54755157  0.87700214    -0.05200
C1909       C  0.41648733  0.57017852  0.89374491    -0.32100
C1910       C  0.39630058  0.57939982  0.92425837     0.36900
H1911       H  0.29510979  0.53426621  0.93125294     0.17300
O1912       O  0.33019132  0.51141280  0.87582983    -0.59600
H1913       H  0.44978843  0.58066470  0.88301411     0.17300
O1914       O  0.41771904  0.60223371  0.93919105    -0.59700
H1915       H  0.44485242  0.59455416  0.95461918     0.44300
H1916       H  0.29702039  0.51800743  0.86592017     0.44300
C1917       C  0.37799670  0.55573979  0.69688609    -0.04800
C1918       C  0.39082656  0.58147860  0.68132286    -0.32200
C1919       C  0.36751488  0.59032187  0.65079382     0.37000
C1920       C  0.33003915  0.57356591  0.63536394    -0.05200
C1921       C  0.31428062  0.54875944  0.65219969    -0.32100
C1922       C  0.33845805  0.53964160  0.68265530     0.36900
H1923       H  0.42091212  0.59418890  0.69215580     0.17300
O1924       O  0.38074628  0.61577807  0.63657168    -0.59600
H1925       H  0.28440637  0.53608134  0.64116303     0.17300
O1926       O  0.32518546  0.51439046  0.69723956    -0.59700
H1927       H  0.29904281  0.51876396  0.71466385     0.44300
H1928       H  0.41311692  0.61240644  0.62397317     0.44300
C1929       C  0.13550040  0.70031839  0.85885688    -0.04800
C1930       C  0.12538834  0.67230952  0.86721747    -0.32200
C1931       C  0.14419723  0.65983026  0.89731057     0.37000
C1932       C  0.17490796  0.67519375  0.92008645    -0.05200
C1933       C  0.18605353  0.70330120  0.91134712    -0.32100
C1934       C  0.16675099  0.71580360  0.88090548     0.36900
H1935       H  0.10031138  0.66034603  0.85100798     0.17300
O1936       O  0.13071350  0.63264461  0.90458390    -0.59600
H1937       H  0.20964666  0.71559979  0.92808389     0.17300
O1938       O  0.17671905  0.74339706  0.87366336    -0.59700
H1939       H  0.20925904  0.74343979  0.86052228     0.44300
H1940       H  0.09800136  0.63380030  0.91745781     0.44300
C1941       C  0.15663770  0.67379184  0.61891990    -0.04800
C1942       C  0.13221171  0.65797452  0.64500060    -0.32200
C1943       C  0.11397977  0.67050474  0.67446057     0.37000
C1944       C  0.11972745  0.69940716  0.67866375    -0.05200
C1945       C  0.14315967  0.71538503  0.65258042    -0.32100
C1946       C  0.16142958  0.70292026  0.62293755     0.36900
H1947       H  0.12727113  0.63563499  0.64278081     0.17300
O1948       O  0.08848230  0.65448696  0.69845659    -0.59600
H1949       H  0.14557911  0.73774939  0.65455518     0.17300
O1950       O  0.18405815  0.71948455  0.59825129    -0.59700
H1951       H  0.15527082  0.72626544  0.58356135     0.44300
H1952       H  0.11575685  0.64682466  0.71377682     0.44300
loop_ 
_geom_bond_atom_site_label_1 
_geom_bond_atom_site_label_2 
_geom_bond_distance 
_geom_bond_site_symmetry_2 
_ccdc_geom_bond_type 
N1           H33   1.043       .  S
N1            C5   1.365       .  A
N1          C494   1.367       .  A
N2            C9   1.365       .  A
N2           C10   1.366       .  A
N3           H34   1.042       .  S
N3            C8   1.359       .  A
N3          C495   1.360       .  A
N4           C11   1.359       .  A
N4           C12   1.357       .  A
C5           C13   1.387       .  A
C5           C21   1.436       .  A
C6          N489   1.365       .  A
C6           C22   1.434       .  A
C6           C14   1.387       .  A
C7          N491   1.360       .  A
C7           C15   1.391       .  A
C7           C24   1.430       .  A
C8           C23   1.420       .  A
C8           C16   1.385       .  A
C9           C21   1.441       .  A
C9           C17   1.388       .  A
C10          C24   1.442       .  A
C10          C18   1.387       .  A
C11          C19   1.391       .  A
C11          C22   1.430       .  A
C12          C20   1.383       .  A
C12          C23   1.419       .  A
C13         C502   1.377       .  A
C13          H25   1.081       .  S
C14         C501   1.377       .  A
C14          H26   1.081   1_556  S
C15         C504   1.377       .  A
C15          H27   1.081       .  S
C16         C503   1.376       .  A
C16          H28   1.082   1_556  S
C17          C18   1.383       .  A
C17          H29   1.081       .  S
C18          H30   1.081       .  S
C19          C20   1.378       .  A
C19          H31   1.080       .  S
C20          H32   1.082       .  S
C21         C113   1.541       .  S
C22         C134   1.529       .  S
C23         C157   1.499       .  S
C24          C91   1.533       .  S
N35          H67   1.042       .  S
N35         C528   1.367       .  A
N35        C1015   1.366       .  A
N36          C43   1.359       .  A
N36          C44   1.360   1_455  A
N37          H68   1.037       .  S
N37         C530   1.361       .  A
N37        C1017   1.363       .  A
N38          C45   1.365       .  A
N38          C46   1.364   1_455  A
C39        N1011   1.365   1_545  A
C39          C47   1.383       .  A
C39          C55   1.430       .  A
C40         N523   1.367       .  A
C40          C56   1.446       .  A
C40          C48   1.391       .  A
C41        N1013   1.364   1_545  A
C41          C49   1.386       .  A
C41          C58   1.431       .  A
C42         N525   1.362   1_556  A
C42          C57   1.429       .  A
C42          C50   1.386       .  A
C43          C55   1.424       .  A
C43          C51   1.387       .  A
C44          C58   1.426       .  A
C44          C52   1.386       .  A
C45          C53   1.395       .  A
C45          C56   1.445       .  A
C46          C54   1.380       .  A
C46          C57   1.430       .  A
C47        C1512   1.378   1_545  A
C47          H59   1.082       .  S
C48        C1511   1.377       .  A
C48          H60   1.080       .  S
C49        C1514   1.376   1_545  A
C49          H61   1.082       .  S
C50        C1513   1.378       .  A
C50          H62   1.082       .  S
C51          C52   1.377   1_455  A
C51          H63   1.082       .  S
C52          H64   1.082       .  S
C53          C54   1.375   1_455  A
C53          H65   1.076       .  S
C54          H66   1.082       .  S
C55          C87   1.511       .  S
C56         C159   1.544       .  S
C57         C136   1.516       .  S
C58         C111   1.510       .  S
Zn69         O73   1.981       .  S
Zn69         O74   2.027       .  S
Zn69         O85   2.071       .  S
Zn69        O566   2.026       .  S
Zn70         O73   1.975       .  S
Zn70         O75   2.107       .  S
Zn70         O77   2.014       .  S
Zn70         O81   2.013       .  S
Zn71        O561   1.953   1_554  S
Zn71         O76   1.971       .  S
Zn71         O79   2.037   1_554  S
Zn71         O82   1.974       .  S
Zn72         O73   1.989       .  S
Zn72         O83   2.073       .  S
Zn72         O84   2.095       .  S
Zn72        O568   2.080       .  S
O73        Zn559   1.954       .  S
O74          C86   1.278       .  A
O75          C87   1.280       .  A
O76          C88   1.268       .  A
O77          C86   1.275       .  A
O78        Zn557   2.031   1_554  S
O78          C88   1.276       .  A
O79         C575   1.271       .  A
O80        Zn560   2.075   1_554  S
O80          C89   1.283       .  A
O81          C90   1.276       .  A
O82          C89   1.271       .  A
O83          C90   1.282       .  A
O84          C91   1.282       .  A
O85          C91   1.275       .  A
C86         C441   1.478       .  S
C87         O567   1.271       .  A
C88         C456   1.467       .  S
C89         C477   1.492       .  S
C90         C468   1.494       .  S
Zn92        O584   1.950   1_554  S
Zn92         O97   1.958       .  S
Zn92        O101   2.036   1_554  S
Zn92        O108   1.961       .  S
Zn93         O96   1.992       .  S
Zn93         O98   2.078       .  S
Zn93        O104   2.096       .  S
Zn93        O588   2.083       .  S
Zn94         O96   1.976       .  S
Zn94         O99   2.096       .  S
Zn94        O102   1.990       .  S
Zn94        O105   1.999       .  S
Zn95         O96   1.982       .  S
Zn95        O103   2.039       .  S
Zn95        O106   2.097       .  S
Zn95        O595   2.045       .  S
O96        Zn580   1.952       .  S
O97         C109   1.269       .  A
O98         C110   1.283       .  A
O99         C111   1.277       .  A
O100       Zn581   2.079   1_554  S
O100        C109   1.282       .  A
O101        C599   1.270       .  A
O102        C110   1.273       .  A
O103        C112   1.281       .  A
O104        C113   1.282       .  A
O105        C112   1.273       .  A
O106        C113   1.278       .  A
O107       Zn583   2.042   1_554  S
O107        C114   1.278       .  A
O108        C114   1.266       .  A
C109        C420   1.476       .  S
C110        C429   1.488       .  S
C111        O589   1.270       .  A
C112        C408   1.476       .  S
C114        C396   1.465       .  S
Zn115       O119   1.970       .  S
Zn115       O120   2.033   1_556  S
Zn115       O124   2.071       .  S
Zn115       O619   2.029       .  S
Zn116       O119   1.953   1_554  S
Zn116       O121   1.982       .  S
Zn116       O123   1.990       .  S
Zn116       O127   2.058       .  S
Zn117       O119   1.989       .  S
Zn117       O122   2.061       .  S
Zn117       O125   2.066   1_556  S
Zn117       O616   2.031       .  S
Zn118       O607   1.979       .  S
Zn118       O126   2.011       .  S
Zn118       O129   2.106       .  S
Zn118       O130   2.034       .  S
O119       Zn606   1.978       .  S
O120        C132   1.277       .  A
O121        C133   1.272       .  A
O122        C134   1.275       .  A
O123        C132   1.271       .  A
O124        C134   1.276       .  A
O125        C133   1.281       .  A
O126        C135   1.276       .  A
O127        C136   1.275   1_554  A
O128       Zn605   2.022       .  S
O128        C135   1.277       .  A
O129        C624   1.282       .  A
O130        C137   1.276       .  A
O131       Zn603   2.053       .  S
O131        C137   1.281       .  A
C132        C357   1.476       .  S
C133        C384   1.486       .  S
C135        C369   1.482       .  S
C136        O617   1.283       .  A
C137        C345   1.491       .  S
Zn138       O142   1.963   1_554  S
Zn138       O143   1.977       .  S
Zn138       O147   2.062       .  S
Zn138       O154   1.993       .  S
Zn139       O142   1.992       .  S
Zn139       O146   2.040   1_556  S
Zn139       O150   2.058       .  S
Zn139       O632   2.086       .  S
Zn140       O630   1.943       .  S
Zn140       O145   2.045       .  S
Zn140       O148   1.953       .  S
Zn140       O151   1.959       .  S
Zn141       O142   1.979       .  S
Zn141       O152   2.099       .  S
Zn141       O153   2.064   1_556  S
Zn141       O637   2.078       .  S
O142       Zn628   1.944       .  S
O143        C155   1.272       .  A
O144       Zn627   2.083       .  S
O144        C156   1.281       .  A
O145        C645   1.272       .  A
O146        C155   1.278       .  A
O147        C157   1.275   1_554  A
O148        C156   1.267       .  A
O149       Zn629   2.083       .  S
O149        C158   1.283       .  A
O150        C159   1.275       .  A
O151        C158   1.267       .  A
O152        C159   1.279       .  A
O153        C160   1.281       .  A
O154        C160   1.270       .  A
C155        C297   1.476       .  S
C156        C309   1.487       .  S
C157        O633   1.271       .  A
C158        C336   1.474       .  S
C160        C321   1.474       .  S
N161        H193   1.036       .  S
N161        C166   1.352       .  A
N161        C165   1.352   1_455  A
N162        C169   1.353       .  A
N162        C170   1.352       .  A
N163        H194   1.037       .  S
N163        C168   1.353       .  A
N163        C167   1.351   1_455  A
N164        C171   1.354       .  A
N164        C172   1.353       .  A
C165        C173   1.386       .  A
C165        C181   1.414       .  A
C166        C182   1.412       .  A
C166        C174   1.384       .  A
C167        C175   1.386       .  A
C167        C184   1.413       .  A
C168        C183   1.415       .  A
C168        C176   1.388       .  A
C169        C181   1.415       .  A
C169        C177   1.385       .  A
C170        C184   1.414       .  A
C170        C178   1.385       .  A
C171        C179   1.384       .  A
C171        C182   1.417       .  A
C172        C180   1.387       .  A
C172        C183   1.422       .  A
C173        C174   1.368   1_655  A
C173        H185   1.078       .  S
C174        H186   1.080       .  S
C175        C176   1.370   1_655  A
C175        H187   1.082       .  S
C176        H188   1.078       .  S
C177        C178   1.380       .  A
C177        H189   1.082       .  S
C178        H190   1.082       .  S
C179        C180   1.380       .  A
C179        H191   1.082       .  S
C180        H192   1.082       .  S
C181        C432   1.492       .  S
C182        C465   1.494       .  S
C183        C480   1.497       .  S
C184        C417   1.490       .  S
N195        H227   1.039       .  S
N195        C200   1.358   1_655  A
N195        C199   1.358       .  A
N196        C203   1.350       .  A
N196        C204   1.351       .  A
N197        H228   1.041       .  S
N197        C202   1.354   1_655  A
N197        C201   1.353       .  A
N198        C205   1.350       .  A
N198        C206   1.352       .  A
C199        C207   1.387       .  A
C199        C215   1.421       .  A
C200        C216   1.422       .  A
C200        C208   1.388       .  A
C201        C209   1.389       .  A
C201        C218   1.413       .  A
C202        C217   1.411       .  A
C202        C210   1.386       .  A
C203        C215   1.415       .  A
C203        C211   1.386       .  A
C204        C218   1.412       .  A
C204        C212   1.385       .  A
C205        C213   1.385       .  A
C205        C216   1.413       .  A
C206        C214   1.386       .  A
C206        C217   1.415       .  A
C207        C208   1.360   1_655  A
C207        H219   1.081       .  S
C208        H220   1.080       .  S
C209        C210   1.361   1_655  A
C209        H221   1.082       .  S
C210        H222   1.082       .  S
C211        C212   1.379       .  A
C211        H223   1.082       .  S
C212        H224   1.082       .  S
C213        C214   1.379       .  A
C213        H225   1.082       .  S
C214        H226   1.082       .  S
C215        C381   1.496       .  S
C216        C324   1.493       .  S
C217        C333   1.495       .  S
C218        C372   1.487       .  S
N229        H261   1.043       .  S
N229        C234   1.348       .  A
N229        C233   1.347       .  A
N230        C237   1.353       .  A
N230        C238   1.353       .  A
N231        H262   1.039       .  S
N231        C236   1.353       .  A
N231        C235   1.355       .  A
N232        C239   1.352       .  A
N232        C240   1.350       .  A
C233        C241   1.388       .  A
C233        C249   1.407       .  A
C234        C250   1.404       .  A
C234        C242   1.387       .  A
C235        C243   1.385       .  A
C235        C252   1.419       .  A
C236        C251   1.416       .  A
C236        C244   1.384       .  A
C237        C249   1.416       .  A
C237        C245   1.386       .  A
C238        C252   1.416       .  A
C238        C246   1.385       .  A
C239        C247   1.384       .  A
C239        C250   1.409       .  A
C240        C248   1.386       .  A
C240        C251   1.410       .  A
C241        C242   1.373       .  A
C241        H253   1.083       .  S
C242        H254   1.083       .  S
C243        C244   1.368       .  A
C243        H255   1.081       .  S
C244        H256   1.083       .  S
C245        C246   1.379       .  A
C245        H257   1.082       .  S
C246        H258   1.082       .  S
C247        C248   1.376       .  A
C247        H259   1.082       .  S
C248        H260   1.082       .  S
C249        C360   1.484       .  S
C250        C300   1.478       .  S
C251        C312   1.484       .  S
C252        C348   1.497       .  S
N263        H295   1.035       .  S
N263        C268   1.351       .  A
N263        C267   1.352       .  A
N264        C271   1.349       .  A
N264        C272   1.350       .  A
N265        H296   1.038       .  S
N265        C270   1.347       .  A
N265        C269   1.347       .  A
N266        C273   1.349       .  A
N266        C274   1.350       .  A
C267        C275   1.384       .  A
C267        C283   1.412       .  A
C268        C284   1.413       .  A
C268        C276   1.383       .  A
C269        C277   1.387       .  A
C269        C286   1.403       .  A
C270        C285   1.404       .  A
C270        C278   1.387       .  A
C271        C283   1.410       .  A
C271        C279   1.386       .  A
C272        C286   1.409       .  A
C272        C280   1.385       .  A
C273        C281   1.386       .  A
C273        C284   1.411       .  A
C274        C282   1.385       .  A
C274        C285   1.410       .  A
C275        C276   1.368       .  A
C275        H287   1.082       .  S
C276        H288   1.081       .  S
C277        C278   1.373       .  A
C277        H289   1.082       .  S
C278        H290   1.082       .  S
C279        C280   1.380       .  A
C279        H291   1.082       .  S
C280        H292   1.082       .  S
C281        C282   1.379       .  A
C281        H293   1.082       .  S
C282        H294   1.082       .  S
C283        C405   1.486       .  S
C284        C444   1.487       .  S
C285        C453   1.479       .  S
C286        C393   1.478       .  S
C297        C298   1.408       .  A
C297        C302   1.410       .  A
C298        C299   1.405       .  A
C298        H303   1.083       .  S
C299        C300   1.404       .  A
C299        O304   1.370       .  S
C300        C301   1.400       .  A
C301        C302   1.390       .  A
C301        H305   1.084       .  S
C302        O306   1.372       .  S
O304        H308   0.992       .  S
O306        H307   0.992       .  S
C309        C310   1.409       .  A
C309        C314   1.417       .  A
C310        C311   1.410       .  A
C310        H315   1.083       .  S
C311        C312   1.405       .  A
C311        O316   1.370       .  S
C312        C313   1.397       .  A
C313        C314   1.390       .  A
C313        H317   1.084       .  S
C314        O318   1.373       .  S
O316        H320   0.991       .  S
O318        H319   0.992       .  S
C321        C322   1.400       .  A
C321        C326   1.408       .  A
C322        C323   1.400       .  A
C322        H327   1.084       .  S
C323        C324   1.410       .  A
C323        O328   1.373       .  S
C324        C325   1.402       .  A
C325        C326   1.408       .  A
C325        H329   1.082       .  S
C326        O330   1.371       .  S
O328        H332   0.992       .  S
O330        H331   0.991       .  S
C333        C334   1.413       .  A
C333        C338   1.407       .  A
C334        C335   1.403       .  A
C334        H339   1.079       .  S
C335        C336   1.401       .  A
C335        O340   1.371       .  S
C336        C337   1.406       .  A
C337        C338   1.397       .  A
C337        H341   1.084       .  S
C338        O342   1.372       .  S
O340        H344   0.992       .  S
O342        H343   0.992       .  S
C345        C346   1.411       .  A
C345        C350   1.411       .  A
C346        C347   1.411       .  A
C346        H351   1.083       .  S
C347        C348   1.409       .  A
C347        O352   1.371       .  S
C348        C349   1.403       .  A
C349        C350   1.398       .  A
C349        H353   1.084       .  S
C350        O354   1.372       .  S
O352       H1332   0.991       .  S
O354        H355   0.992       .  S
H356       O1328   0.992       .  S
C357        C358   1.408       .  A
C357        C362   1.408       .  A
C358        C359   1.402       .  A
C358        H363   1.083       .  S
C359        C360   1.403       .  A
C359        O364   1.371       .  S
C360        C361   1.405       .  A
C361        C362   1.396       .  A
C361        H365   1.084       .  S
C362        O366   1.372       .  S
O364        H368   0.991       .  S
O366        H367   0.992       .  S
C369        C370   1.401       .  A
C369        C374   1.415       .  A
C370        C371   1.400       .  A
C370        H375   1.084       .  S
C371        C372   1.411       .  A
C371        O376   1.369       .  S
C372        C373   1.401       .  A
C373        C374   1.400       .  A
C373        H377   1.084       .  S
C374        O378   1.372       .  S
O376        H380   0.992       .  S
O378        H379   0.992       .  S
C381        C382   1.407       .  A
C381        C386   1.404       .  A
C382        C383   1.404       .  A
C382        H387   1.075       .  S
C383        C384   1.407       .  A
C383        O388   1.372       .  S
C384        C385   1.410       .  A
C385        C386   1.398       .  A
C385        H389   1.084       .  S
C386        O390   1.372       .  S
O388        H392   0.992       .  S
O390        H391   0.992       .  S
C393        C394   1.399       .  A
C393        C398   1.410       .  A
C394        C395   1.401       .  A
C394        H399   1.083       .  S
C395        C396   1.412       .  A
C395        O400   1.372       .  S
C396        C397   1.397       .  A
C397        C398   1.394       .  A
C397        H401   1.084       .  S
C398        O402   1.372       .  S
O400        H404   0.992       .  S
O402        H403   0.991       .  S
C405        C406   1.402       .  A
C405        C410   1.410       .  A
C406        C407   1.404       .  A
C406        H411   1.083       .  S
C407        C408   1.415       .  A
C407        O412   1.372       .  S
C408        C409   1.400       .  A
C409        C410   1.394       .  A
C409        H413   1.084       .  S
C410        O414   1.374       .  S
O412        H416   0.991       .  S
O414        H415   0.992       .  S
C417        C418   1.406       .  A
C417        C422   1.408       .  A
C418        C419   1.407       .  A
C418        H423   1.082       .  S
C419        C420   1.409       .  A
C419        O424   1.371       .  S
C420        C421   1.403       .  A
C421        C422   1.393       .  A
C421        H425   1.084       .  S
C422        O426   1.373       .  S
O424        H428   0.992       .  S
O426        H427   0.992       .  S
C429        C430   1.409       .  A
C429        C434   1.412       .  A
C430        C431   1.410       .  A
C430        H435   1.083       .  S
C431        C432   1.407       .  A
C431        O436   1.370       .  S
C432        C433   1.402       .  A
C433        C434   1.395       .  A
C433        H437   1.084       .  S
C434        O438   1.372       .  S
O436        H440   0.991       .  S
O438        H439   0.992       .  S
C441        C442   1.407       .  A
C441        C446   1.409       .  A
C442        C443   1.403       .  A
C442        H447   1.083       .  S
C443        C444   1.405       .  A
C443        O448   1.371       .  S
C444        C445   1.404       .  A
C445        C446   1.396       .  A
C445        H449   1.084       .  S
C446        O450   1.372       .  S
O448        H452   0.991       .  S
O450        H451   0.992       .  S
C453        C454   1.403       .  A
C453        C458   1.402       .  A
C454        C455   1.393       .  A
C454        H459   1.082       .  S
C455        C456   1.405       .  A
C455        O460   1.372       .  S
C456        C457   1.406       .  A
C457        C458   1.400       .  A
C457        H461   1.084       .  S
C458        O462   1.368       .  S
O460        H464   0.992       .  S
O462        H463   0.992       .  S
C465        C466   1.402       .  A
C465        C470   1.407       .  A
C466        C467   1.398       .  A
C466        H471   1.084       .  S
C467        C468   1.414       .  A
C467        O472   1.372       .  S
C468        C469   1.410       .  A
C469        C470   1.410       .  A
C469        H473   1.083       .  S
C470        O474   1.369       .  S
O472        H476   0.992       .  S
O474        H475   0.992       .  S
C477        C478   1.411       .  A
C477        C482   1.409       .  A
C478        C479   1.399       .  A
C478        H483   1.083       .  S
C479        C480   1.406       .  A
C479        O484   1.373       .  S
C480        C481   1.405       .  A
C481        C482   1.404       .  A
C481        H485   1.075       .  S
C482        O486   1.371       .  S
O484        H488   0.992       .  S
O486        H487   0.992       .  S
N489        H521   1.043       .  S
N489        C493   1.362       .  A
N490        C497   1.365       .  A
N490        C498   1.366       .  A
N491        H522   1.042       .  S
N491        C496   1.359       .  A
N492        C499   1.359       .  A
N492        C500   1.358       .  A
C493        C501   1.387       .  A
C493        C509   1.432       .  A
C494        C510   1.437       .  A
C494        C502   1.387       .  A
C495        C503   1.391       .  A
C495        C512   1.431       .  A
C496        C511   1.420       .  A
C496        C504   1.385       .  A
C497        C509   1.439       .  A
C497        C505   1.387       .  A
C498        C512   1.441       .  A
C498        C506   1.388       .  A
C499        C507   1.391       .  A
C499        C510   1.431       .  A
C500        C508   1.383       .  A
C500        C511   1.420       .  A
C501        H513   1.082   1_556  S
C502        H514   1.081       .  S
C503        H515   1.081   1_556  S
C504        H516   1.082       .  S
C505        C506   1.382       .  A
C505        H517   1.081       .  S
C506        H518   1.081       .  S
C507        C508   1.378       .  A
C507        H519   1.080       .  S
C508        H520   1.082       .  S
C509        C601   1.535       .  S
C510        C622   1.532       .  S
C511        C645   1.501       .  S
C512        C579   1.533       .  S
N523        H555   1.041   1_556  S
N523       C1503   1.368       .  A
N524        C531   1.357       .  A
N524        C532   1.359   1_455  A
N525        H556   1.037       .  S
N525       C1505   1.363       .  A
N526        C533   1.364       .  A
N526        C534   1.363   1_455  A
C527       N1499   1.364   1_545  A
C527        C535   1.383       .  A
C527        C543   1.429       .  A
C528        C544   1.443       .  A
C528        C536   1.391       .  A
C529       N1501   1.363   1_545  A
C529        C537   1.386       .  A
C529        C546   1.430       .  A
C530        C545   1.428       .  A
C530        C538   1.387       .  A
C531        C543   1.423       .  A
C531        C539   1.387       .  A
C532        C546   1.425       .  A
C532        C540   1.386       .  A
C533        C541   1.393       .  A
C533        C544   1.442       .  A
C534        C542   1.381       .  A
C534        C545   1.429       .  A
C535       C1024   1.378   1_545  A
C535        H547   1.083       .  S
C536       C1023   1.376       .  A
C536        H548   1.080       .  S
C537       C1026   1.377   1_545  A
C537        H549   1.083       .  S
C538       C1025   1.378       .  A
C538        H550   1.082       .  S
C539        C540   1.377   1_455  A
C539        H551   1.082       .  S
C540        H552   1.082       .  S
C541        C542   1.377   1_455  A
C541        H553   1.077       .  S
C542        H554   1.082       .  S
C543        C575   1.506       .  S
C544        C647   1.543       .  S
C545        C624   1.512       .  S
C546        C599   1.508       .  S
Zn557       O561   1.978       .  S
Zn557       O562   2.026       .  S
Zn557       O573   2.070       .  S
Zn558       O561   1.973       .  S
Zn558       O563   2.095       .  S
Zn558       O565   2.004       .  S
Zn558       O569   2.007       .  S
Zn559       O564   1.966       .  S
Zn559       O567   2.041       .  S
Zn559       O570   1.979       .  S
Zn560       O561   1.987       .  S
Zn560       O571   2.073       .  S
Zn560       O572   2.090       .  S
O562        C574   1.278       .  A
O563        C575   1.279       .  A
O564        C576   1.267       .  A
O565        C574   1.274       .  A
O566        C576   1.276       .  A
O568        C577   1.283       .  A
O569        C578   1.275       .  A
O570        C577   1.272       .  A
O571        C578   1.282       .  A
O572        C579   1.281       .  A
O573        C579   1.275       .  A
C574        C929   1.475       .  S
C576        C944   1.464       .  S
C577        C965   1.494       .  S
C578        C956   1.495       .  S
Zn580       O585   1.967       .  S
Zn580       O589   2.041       .  S
Zn580       O596   1.960       .  S
Zn581       O584   1.991       .  S
Zn581       O586   2.081       .  S
Zn581       O592   2.091       .  S
Zn582       O584   1.974       .  S
Zn582       O587   2.093       .  S
Zn582       O590   1.993       .  S
Zn582       O593   2.002       .  S
Zn583       O584   1.980       .  S
Zn583       O591   2.036       .  S
Zn583       O594   2.085       .  S
O585        C597   1.270       .  A
O586        C598   1.283       .  A
O587        C599   1.277       .  A
O588        C597   1.283       .  A
O590        C598   1.273       .  A
O591        C600   1.280       .  A
O592        C601   1.281       .  A
O593        C600   1.273       .  A
O594        C601   1.277       .  A
O595        C602   1.279       .  A
O596        C602   1.267       .  A
C597        C908   1.477       .  S
C598        C917   1.488       .  S
C600        C896   1.475       .  S
C602        C884   1.467       .  S
Zn603       O607   1.974       .  S
Zn603       O608   2.053       .  S
Zn603       O612   2.085       .  S
Zn604       O607   1.953       .  S
Zn604       O609   1.982       .  S
Zn604       O611   1.978       .  S
Zn604       O615   2.052       .  S
Zn605       O607   1.988       .  S
Zn605       O610   2.056       .  S
Zn605       O613   2.067       .  S
Zn606       O614   2.020       .  S
Zn606       O617   2.113       .  S
Zn606       O618   2.032       .  S
O608        C620   1.281       .  A
O609        C621   1.271       .  A
O610        C622   1.275       .  A
O611        C620   1.270       .  A
O612        C622   1.278       .  A
O613        C621   1.280       .  A
O614        C623   1.276       .  A
O615        C624   1.274       .  A
O616        C623   1.278       .  A
O618        C625   1.276       .  A
O619        C625   1.278       .  A
C620        C845   1.481       .  S
C621        C872   1.488       .  S
C623        C857   1.486       .  S
C625        C833   1.485       .  S
Zn626       O630   1.964       .  S
Zn626       O631   1.980       .  S
Zn626       O635   2.064       .  S
Zn626       O642   1.991       .  S
Zn627       O630   1.989       .  S
Zn627       O634   2.038       .  S
Zn627       O638   2.058       .  S
Zn628       O633   2.041       .  S
Zn628       O636   1.957       .  S
Zn628       O639   1.960       .  S
Zn629       O630   1.983       .  S
Zn629       O640   2.101       .  S
Zn629       O641   2.056       .  S
O631        C643   1.272       .  A
O632        C644   1.282       .  A
O634        C643   1.277       .  A
O635        C645   1.274       .  A
O636        C644   1.268       .  A
O637        C646   1.283       .  A
O638        C647   1.276       .  A
O639        C646   1.267       .  A
O640        C647   1.279       .  A
O641        C648   1.281       .  A
O642        C648   1.270       .  A
C643        C785   1.473       .  S
C644        C797   1.488       .  S
C646        C824   1.473       .  S
C648        C809   1.471       .  S
N649        H681   1.036       .  S
N649        C654   1.352       .  A
N649        C653   1.353   1_455  A
N650        C657   1.353       .  A
N650        C658   1.353       .  A
N651        H682   1.038       .  S
N651        C656   1.353       .  A
N651        C655   1.351   1_455  A
N652        C659   1.355       .  A
N652        C660   1.354       .  A
C653        C661   1.386       .  A
C653        C669   1.416       .  A
C654        C670   1.412       .  A
C654        C662   1.384       .  A
C655        C663   1.385       .  A
C655        C672   1.413       .  A
C656        C671   1.415       .  A
C656        C664   1.388       .  A
C657        C669   1.416       .  A
C657        C665   1.385       .  A
C658        C672   1.415       .  A
C658        C666   1.385       .  A
C659        C667   1.384       .  A
C659        C670   1.418       .  A
C660        C668   1.387       .  A
C660        C671   1.422       .  A
C661        C662   1.369   1_655  A
C661        H673   1.079       .  S
C662        H674   1.079       .  S
C663        C664   1.371   1_655  A
C663        H675   1.082       .  S
C664        H676   1.079       .  S
C665        C666   1.380       .  A
C665        H677   1.082       .  S
C666        H678   1.082       .  S
C667        C668   1.381       .  A
C667        H679   1.082       .  S
C668        H680   1.082       .  S
C669        C920   1.495       .  S
C670        C953   1.494       .  S
C671        C968   1.498       .  S
C672        C905   1.493       .  S
N683        H715   1.039       .  S
N683        C688   1.357   1_655  A
N683        C687   1.358       .  A
N684        C691   1.350       .  A
N684        C692   1.351       .  A
N685        H716   1.041       .  S
N685        C690   1.354   1_655  A
N685        C689   1.353       .  A
N686        C693   1.349       .  A
N686        C694   1.351       .  A
C687        C695   1.388       .  A
C687        C703   1.421       .  A
C688        C704   1.422       .  A
C688        C696   1.388       .  A
C689        C697   1.389       .  A
C689        C706   1.414       .  A
C690        C705   1.412       .  A
C690        C698   1.386       .  A
C691        C703   1.415       .  A
C691        C699   1.386       .  A
C692        C706   1.412       .  A
C692        C700   1.385       .  A
C693        C701   1.385       .  A
C693        C704   1.411       .  A
C694        C702   1.386       .  A
C694        C705   1.415       .  A
C695        C696   1.359   1_655  A
C695        H707   1.080       .  S
C696        H708   1.081       .  S
C697        C698   1.361   1_655  A
C697        H709   1.082       .  S
C698        H710   1.082       .  S
C699        C700   1.378       .  A
C699        H711   1.082       .  S
C700        H712   1.082       .  S
C701        C702   1.378       .  A
C701        H713   1.082       .  S
C702        H714   1.081       .  S
C703        C869   1.495       .  S
C704        C812   1.491       .  S
C705        C821   1.496       .  S
C706        C860   1.488       .  S
N717        H749   1.039       .  S
N717        C722   1.347       .  A
N717        C721   1.347       .  A
N718        C725   1.353       .  A
N718        C726   1.350       .  A
N719        H750   1.034       .  S
N719        C724   1.353       .  A
N719        C723   1.354       .  A
N720        C727   1.351       .  A
N720        C728   1.350       .  A
C721        C729   1.387       .  A
C721        C737   1.406       .  A
C722        C738   1.403       .  A
C722        C730   1.387       .  A
C723        C731   1.383       .  A
C723        C740   1.417       .  A
C724        C739   1.414       .  A
C724        C732   1.384       .  A
C725        C737   1.415       .  A
C725        C733   1.385       .  A
C726        C740   1.414       .  A
C726        C734   1.386       .  A
C727        C735   1.385       .  A
C727        C738   1.411       .  A
C728        C736   1.386       .  A
C728        C739   1.411       .  A
C729        C730   1.374       .  A
C729        H741   1.082       .  S
C730        H742   1.082       .  S
C731        C732   1.368       .  A
C731        H743   1.081       .  S
C732        H744   1.083       .  S
C733        C734   1.381       .  A
C733        H745   1.082       .  S
C734        H746   1.082       .  S
C735        C736   1.381       .  A
C735        H747   1.082       .  S
C736        H748   1.082       .  S
C737        C848   1.490       .  S
C738        C788   1.480       .  S
C739        C800   1.487       .  S
C740        C836   1.491       .  S
N751        H783   1.035       .  S
N751        C756   1.351       .  A
N751        C755   1.352       .  A
N752        C759   1.348       .  A
N752        C760   1.350       .  A
N753        H784   1.039       .  S
N753        C758   1.346       .  A
N753        C757   1.347       .  A
N754        C761   1.348       .  A
N754        C762   1.349       .  A
C755        C763   1.384       .  A
C755        C771   1.413       .  A
C756        C772   1.413       .  A
C756        C764   1.383       .  A
C757        C765   1.387       .  A
C757        C774   1.402       .  A
C758        C773   1.402       .  A
C758        C766   1.387       .  A
C759        C771   1.411       .  A
C759        C767   1.386       .  A
C760        C774   1.410       .  A
C760        C768   1.385       .  A
C761        C769   1.386       .  A
C761        C772   1.409       .  A
C762        C770   1.385       .  A
C762        C773   1.408       .  A
C763        C764   1.369       .  A
C763        H775   1.082       .  S
C764        H776   1.081       .  S
C765        C766   1.373       .  A
C765        H777   1.082       .  S
C766        H778   1.082       .  S
C767        C768   1.382       .  A
C767        H779   1.082       .  S
C768        H780   1.082       .  S
C769        C770   1.379       .  A
C769        H781   1.082       .  S
C770        H782   1.082       .  S
C771        C893   1.486       .  S
C772        C932   1.484       .  S
C773        C941   1.476       .  S
C774        C881   1.480       .  S
C785        C786   1.408       .  A
C785        C790   1.408       .  A
C786        C787   1.404       .  A
C786        H791   1.083       .  S
C787        C788   1.404       .  A
C787        O792   1.370       .  S
C788        C789   1.402       .  A
C789        C790   1.391       .  A
C789        H793   1.084       .  S
C790        O794   1.372       .  S
O792        H796   0.992       .  S
O794        H795   0.992       .  S
C797        C798   1.409       .  A
C797        C802   1.416       .  A
C798        C799   1.410       .  A
C798        H803   1.083       .  S
C799        C800   1.407       .  A
C799        O804   1.370       .  S
C800        C801   1.399       .  A
C801        C802   1.392       .  A
C801        H805   1.084       .  S
C802        O806   1.373       .  S
O804        H808   0.992       .  S
O806        H807   0.992       .  S
C809        C810   1.400       .  A
C809        C814   1.408       .  A
C810        C811   1.399       .  A
C810        H815   1.084       .  S
C811        C812   1.410       .  A
C811        O816   1.374       .  S
C812        C813   1.402       .  A
C813        C814   1.406       .  A
C813        H817   1.082       .  S
C814        O818   1.371       .  S
O816        H820   0.992       .  S
O818        H819   0.992       .  S
C821        C822   1.412       .  A
C821        C826   1.408       .  A
C822        C823   1.401       .  A
C822        H827   1.079       .  S
C823        C824   1.400       .  A
C823        O828   1.371       .  S
C824        C825   1.406       .  A
C825        C826   1.398       .  A
C825        H829   1.084       .  S
C826        O830   1.372       .  S
O828        H832   0.992       .  S
O830        H831   0.992       .  S
C833        C834   1.409       .  A
C833        C838   1.411       .  A
C834        C835   1.408       .  A
C834        H839   1.083       .  S
C835        C836   1.408       .  A
C835        O840   1.371       .  S
C836        C837   1.402       .  A
C837        C838   1.396       .  A
C837        H841   1.084       .  S
C838        O842   1.372       .  S
O840       H1820   0.991       .  S
O842        H843   0.992       .  S
H844       O1816   0.992       .  S
C845        C846   1.411       .  A
C845        C850   1.407       .  A
C846        C847   1.404       .  A
C846        H851   1.083       .  S
C847        C848   1.404       .  A
C847        O852   1.372       .  S
C848        C849   1.408       .  A
C849        C850   1.396       .  A
C849        H853   1.084       .  S
C850        O854   1.372       .  S
O852        H856   0.992       .  S
O854        H855   0.992       .  S
C857        C858   1.403       .  A
C857        C862   1.415       .  A
C858        C859   1.401       .  A
C858        H863   1.083       .  S
C859        C860   1.410       .  A
C859        O864   1.370       .  S
C860        C861   1.401       .  A
C861        C862   1.400       .  A
C861        H865   1.084       .  S
C862        O866   1.371       .  S
O864        H868   0.992       .  S
O866        H867   0.992       .  S
C869        C870   1.407       .  A
C869        C874   1.404       .  A
C870        C871   1.405       .  A
C870        H875   1.076       .  S
C871        C872   1.408       .  A
C871        O876   1.371       .  S
C872        C873   1.410       .  A
C873        C874   1.397       .  A
C873        H877   1.084       .  S
C874        O878   1.372       .  S
O876        H880   0.992       .  S
O878        H879   0.992       .  S
C881        C882   1.399       .  A
C881        C886   1.412       .  A
C882        C883   1.401       .  A
C882        H887   1.083       .  S
C883        C884   1.413       .  A
C883        O888   1.372       .  S
C884        C885   1.396       .  A
C885        C886   1.394       .  A
C885        H889   1.084       .  S
C886        O890   1.372       .  S
O888        H892   0.992       .  S
O890        H891   0.991       .  S
C893        C894   1.403       .  A
C893        C898   1.409       .  A
C894        C895   1.405       .  A
C894        H899   1.083       .  S
C895        C896   1.414       .  A
C895        O900   1.373       .  S
C896        C897   1.400       .  A
C897        C898   1.395       .  A
C897        H901   1.084       .  S
C898        O902   1.373       .  S
O900        H904   0.991       .  S
O902        H903   0.992       .  S
C905        C906   1.406       .  A
C905        C910   1.409       .  A
C906        C907   1.408       .  A
C906        H911   1.082       .  S
C907        C908   1.409       .  A
C907        O912   1.371       .  S
C908        C909   1.403       .  A
C909        C910   1.395       .  A
C909        H913   1.084       .  S
C910        O914   1.373       .  S
O912        H916   0.992       .  S
O914        H915   0.992       .  S
C917        C918   1.409       .  A
C917        C922   1.412       .  A
C918        C919   1.410       .  A
C918        H923   1.083       .  S
C919        C920   1.408       .  A
C919        O924   1.370       .  S
C920        C921   1.403       .  A
C921        C922   1.396       .  A
C921        H925   1.084       .  S
C922        O926   1.372       .  S
O924        H928   0.991       .  S
O926        H927   0.992       .  S
C929        C930   1.407       .  A
C929        C934   1.408       .  A
C930        C931   1.403       .  A
C930        H935   1.083       .  S
C931        C932   1.405       .  A
C931        O936   1.371       .  S
C932        C933   1.403       .  A
C933        C934   1.394       .  A
C933        H937   1.084       .  S
C934        O938   1.372       .  S
O936        H940   0.991       .  S
O938        H939   0.992       .  S
C941        C942   1.403       .  A
C941        C946   1.402       .  A
C942        C943   1.392       .  A
C942        H947   1.082       .  S
C943        C944   1.404       .  A
C943        O948   1.372       .  S
C944        C945   1.406       .  A
C945        C946   1.399       .  A
C945        H949   1.084       .  S
C946        O950   1.369       .  S
O948        H952   0.992       .  S
O950        H951   0.992       .  S
C953        C954   1.402       .  A
C953        C958   1.408       .  A
C954        C955   1.397       .  A
C954        H959   1.084       .  S
C955        C956   1.414       .  A
C955        O960   1.372       .  S
C956        C957   1.411       .  A
C957        C958   1.410       .  A
C957        H961   1.083       .  S
C958        O962   1.370       .  S
O960        H964   0.992       .  S
O962        H963   0.992       .  S
C965        C966   1.411       .  A
C965        C970   1.410       .  A
C966        C967   1.399       .  A
C966        H971   1.083       .  S
C967        C968   1.406       .  A
C967        O972   1.373       .  S
C968        C969   1.407       .  A
C969        C970   1.406       .  A
C969        H973   1.076       .  S
C970        O974   1.371       .  S
O972        H976   0.992       .  S
O974        H975   0.992       .  S
N977       H1009   1.043       .  S
N977       C1470   1.367       .  A
N977        C981   1.362       .  A
N978        C985   1.365       .  A
N978        C986   1.368       .  A
N979       H1010   1.041       .  S
N979        C984   1.362       .  A
N979       C1471   1.363       .  A
N980        C987   1.361       .  A
N980        C988   1.359       .  A
C981        C989   1.389       .  A
C981        C997   1.434       .  A
C982       N1465   1.366       .  A
C982        C998   1.436       .  A
C982        C990   1.388       .  A
C983       N1467   1.363       .  A
C983        C991   1.390       .  A
C983       C1000   1.434       .  A
C984        C999   1.425       .  A
C984        C992   1.384       .  A
C985        C997   1.442       .  A
C985        C993   1.389       .  A
C986       C1000   1.443       .  A
C986        C994   1.387       .  A
C987        C995   1.390       .  A
C987        C998   1.433       .  A
C988        C996   1.383       .  A
C988        C999   1.423       .  A
C989       C1478   1.377       .  A
C989       H1001   1.082       .  S
C990       C1477   1.378       .  A
C990       H1002   1.081       .  S
C991       C1480   1.378       .  A
C991       H1003   1.081       .  S
C992       C1479   1.378       .  A
C992       H1004   1.082       .  S
C993        C994   1.382       .  A
C993       H1005   1.080       .  S
C994       H1006   1.081       .  S
C995        C996   1.376       .  A
C995       H1007   1.079       .  S
C996       H1008   1.082       .  S
C997       C1089   1.534       .  S
C998       C1110   1.533       .  S
C999       C1133   1.508       .  S
C1000      C1067   1.541       .  S
N1011      H1043   1.039       .  S
N1011      C1504   1.366       .  A
N1012      C1019   1.357       .  A
N1012      C1020   1.358   1_455  A
N1013      H1044   1.035       .  S
N1013      C1506   1.362       .  A
N1014      C1021   1.365       .  A
N1014      C1022   1.364   1_455  A
C1015      C1023   1.385       .  A
C1015      C1031   1.434       .  A
C1016      N1499   1.366   1_554  A
C1016      C1032   1.443       .  A
C1016      C1024   1.392   1_554  A
C1017      C1025   1.389       .  A
C1017      C1034   1.433       .  A
C1018      N1501   1.361   1_554  A
C1018      C1033   1.436       .  A
C1018      C1026   1.391   1_554  A
C1019      C1031   1.424       .  A
C1019      C1027   1.388       .  A
C1020      C1034   1.425       .  A
C1020      C1028   1.386       .  A
C1021      C1029   1.389       .  A
C1021      C1032   1.442       .  A
C1022      C1030   1.385       .  A
C1022      C1033   1.436       .  A
C1023      H1035   1.081       .  S
C1024      H1036   1.081       .  S
C1025      H1037   1.082       .  S
C1026      H1038   1.082   1_556  S
C1027      C1028   1.378   1_455  A
C1027      H1039   1.082       .  S
C1028      H1040   1.082       .  S
C1029      C1030   1.381   1_455  A
C1029      H1041   1.080       .  S
C1030      H1042   1.082       .  S
C1031      C1063   1.514       .  S
C1032      C1135   1.539       .  S
C1033      C1112   1.518       .  S
C1034      C1087   1.508       .  S
Zn1045     O1049   1.984       .  S
Zn1045     O1050   2.048       .  S
Zn1045     O1542   2.036       .  S
Zn1045     O1061   2.090       .  S
Zn1046     O1049   1.957       .  S
Zn1046     O1051   2.046       .  S
Zn1046     O1053   1.968       .  S
Zn1046     O1057   1.982       .  S
Zn1047     O1537   1.985       .  S
Zn1047     O1052   2.036       .  S
Zn1047     O1055   2.097       .  S
Zn1047     O1058   2.000       .  S
Zn1048     O1049   1.993       .  S
Zn1048     O1544   2.068       .  S
Zn1048     O1059   2.086       .  S
Zn1048     O1060   2.102       .  S
O1049     Zn1535   1.986       .  S
O1050      C1062   1.280       .  A
O1051      C1063   1.272       .  A
O1052      C1064   1.274       .  A
O1053      C1062   1.269       .  A
O1054     Zn1533   2.038       .  S
O1054      C1064   1.278       .  A
O1055      C1551   1.280       .  A
O1056     Zn1536   2.061       .  S
O1056      C1065   1.283       .  A
O1057      C1066   1.271       .  A
O1058      C1065   1.276       .  A
O1059      C1066   1.282       .  A
O1060      C1067   1.283       .  A
O1061      C1067   1.277       .  A
C1062      C1417   1.468       .  S
C1063      O1543   1.279       .  A
C1064      C1432   1.487       .  S
C1065      C1453   1.493       .  S
C1066      C1444   1.494       .  S
Zn1068     O1560   1.983       .  S
Zn1068     O1073   2.002       .  S
Zn1068     O1077   2.097       .  S
Zn1068     O1084   2.018       .  S
Zn1069     O1072   1.994       .  S
Zn1069     O1074   2.093       .  S
Zn1069     O1564   2.077       .  S
Zn1069     O1080   2.086       .  S
Zn1070     O1072   1.953       .  S
Zn1070     O1075   2.038       .  S
Zn1070     O1078   1.989       .  S
Zn1070     O1081   1.973       .  S
Zn1071     O1072   1.981       .  S
Zn1071     O1079   2.045       .  S
Zn1071     O1082   2.078       .  S
Zn1071     O1571   2.020       .  S
O1072     Zn1556   1.979       .  S
O1073      C1085   1.276       .  A
O1074      C1086   1.283       .  A
O1075      C1087   1.272       .  A
O1076     Zn1557   2.073       .  S
O1076      C1085   1.283       .  A
O1077      C1575   1.278       .  A
O1078      C1086   1.272       .  A
O1079      C1088   1.279       .  A
O1080      C1089   1.281       .  A
O1081      C1088   1.268       .  A
O1082      C1089   1.276       .  A
O1083     Zn1559   2.017       .  S
O1083      C1090   1.277       .  A
O1084      C1090   1.274       .  A
C1085      C1396   1.484       .  S
C1086      C1405   1.489       .  S
C1087      O1565   1.277       .  A
C1088      C1384   1.464       .  S
C1090      C1372   1.476       .  S
Zn1091     O1095   1.969       .  S
Zn1091     O1096   2.031       .  S
Zn1091     O1100   2.082       .  S
Zn1091     O1595   2.043       .  S
Zn1092     O1095   1.972       .  S
Zn1092     O1097   1.992       .  S
Zn1092     O1099   2.027       .  S
Zn1092     O1103   2.111       .  S
Zn1093     O1095   1.981       .  S
Zn1093     O1098   2.065       .  S
Zn1093     O1101   2.030       .  S
Zn1093     O1592   2.035   1_554  S
Zn1094     O1583   1.937       .  S
Zn1094     O1102   1.972       .  S
Zn1094     O1105   2.046       .  S
Zn1094     O1106   1.959       .  S
O1095     Zn1582   1.940   1_554  S
O1096      C1108   1.278       .  A
O1097      C1109   1.275       .  A
O1098      C1110   1.275       .  A
O1099      C1108   1.275       .  A
O1100      C1110   1.277       .  A
O1101      C1109   1.278       .  A
O1102      C1111   1.269       .  A
O1103      C1112   1.281       .  A
O1104     Zn1581   2.039       .  S
O1104      C1111   1.277       .  A
O1105      C1600   1.274       .  A
O1106      C1113   1.269       .  A
O1107     Zn1579   2.045       .  S
O1107      C1113   1.280       .  A
C1108      C1333   1.480       .  S
C1109      C1360   1.478       .  S
C1111      C1345   1.476       .  S
C1112      O1593   1.275       .  A
C1113      C1321   1.473       .  S
Zn1114     O1118   1.961       .  S
Zn1114     O1119   1.972       .  S
Zn1114     O1123   2.068       .  S
Zn1114     O1130   1.981       .  S
Zn1115     O1118   1.998       .  S
Zn1115     O1608   2.065   1_554  S
Zn1115     O1122   2.072       .  S
Zn1115     O1126   2.086       .  S
Zn1116     O1606   1.948       .  S
Zn1116     O1121   2.063       .  S
Zn1116     O1124   1.962       .  S
Zn1116     O1127   1.969       .  S
Zn1117     O1118   1.981       .  S
Zn1117     O1613   2.057   1_554  S
Zn1117     O1128   2.104       .  S
Zn1117     O1129   2.066       .  S
O1118     Zn1604   1.950       .  S
O1119      C1131   1.271       .  A
O1120     Zn1603   2.070       .  S
O1120      C1132   1.281       .  A
O1121      C1621   1.274       .  A
O1122      C1131   1.281       .  A
O1123      C1133   1.274       .  A
O1124      C1132   1.269       .  A
O1125     Zn1605   2.065       .  S
O1125      C1134   1.281       .  A
O1126      C1135   1.280       .  A
O1127      C1134   1.269       .  A
O1128      C1135   1.280       .  A
O1129      C1136   1.283       .  A
O1130      C1136   1.269       .  A
C1131      C1273   1.484       .  S
C1132      C1285   1.486       .  S
C1133      O1609   1.274       .  A
C1134      C1312   1.473       .  S
C1136      C1297   1.471       .  S
N1137      H1169   1.035       .  S
N1137      C1142   1.355       .  A
N1137      C1141   1.355   1_455  A
N1138      C1145   1.354       .  A
N1138      C1146   1.355       .  A
N1139      H1170   1.039       .  S
N1139      C1144   1.351       .  A
N1139      C1143   1.348   1_455  A
N1140      C1147   1.352       .  A
N1140      C1148   1.354       .  A
C1141      C1149   1.386       .  A
C1141      C1157   1.420       .  A
C1142      C1158   1.418       .  A
C1142      C1150   1.385       .  A
C1143      C1151   1.387       .  A
C1143      C1160   1.409       .  A
C1144      C1159   1.409       .  A
C1144      C1152   1.386       .  A
C1145      C1157   1.420       .  A
C1145      C1153   1.386       .  A
C1146      C1160   1.417       .  A
C1146      C1154   1.384       .  A
C1147      C1155   1.387       .  A
C1147      C1158   1.417       .  A
C1148      C1156   1.385       .  A
C1148      C1159   1.417       .  A
C1149      C1150   1.369   1_655  A
C1149      H1161   1.079       .  S
C1150      H1162   1.080       .  S
C1151      C1152   1.375   1_655  A
C1151      H1163   1.082       .  S
C1152      H1164   1.081       .  S
C1153      C1154   1.382       .  A
C1153      H1165   1.082       .  S
C1154      H1166   1.082       .  S
C1155      C1156   1.381       .  A
C1155      H1167   1.082       .  S
C1156      H1168   1.082       .  S
C1157      C1408   1.500       .  S
C1158      C1441   1.491       .  S
C1159      C1456   1.493       .  S
C1160      C1393   1.495       .  S
N1171      H1203   1.038       .  S
N1171      C1176   1.357   1_655  A
N1171      C1175   1.354       .  A
N1172      C1179   1.347       .  A
N1172      C1180   1.350       .  A
N1173      H1204   1.042       .  S
N1173      C1178   1.351   1_655  A
N1173      C1177   1.352       .  A
N1174      C1181   1.348       .  A
N1174      C1182   1.349       .  A
C1175      C1183   1.389       .  A
C1175      C1191   1.418       .  A
C1176      C1192   1.419       .  A
C1176      C1184   1.387       .  A
C1177      C1185   1.387       .  A
C1177      C1194   1.409       .  A
C1178      C1193   1.409       .  A
C1178      C1186   1.387       .  A
C1179      C1191   1.409       .  A
C1179      C1187   1.386       .  A
C1180      C1194   1.410       .  A
C1180      C1188   1.385       .  A
C1181      C1189   1.385       .  A
C1181      C1192   1.409       .  A
C1182      C1190   1.386       .  A
C1182      C1193   1.413       .  A
C1183      C1184   1.358   1_655  A
C1183      H1195   1.080       .  S
C1184      H1196   1.081       .  S
C1185      C1186   1.365   1_655  A
C1185      H1197   1.082       .  S
C1186      H1198   1.082       .  S
C1187      C1188   1.377       .  A
C1187      H1199   1.082       .  S
C1188      H1200   1.082       .  S
C1189      C1190   1.379       .  A
C1189      H1201   1.082       .  S
C1190      H1202   1.081       .  S
C1191      C1357   1.481       .  S
C1192      C1300   1.489       .  S
C1193      C1309   1.488       .  S
C1194      C1348   1.489       .  S
N1205      H1237   1.034       .  S
N1205      C1210   1.351       .  A
N1205      C1209   1.355       .  A
N1206      C1213   1.350       .  A
N1206      C1214   1.350       .  A
N1207      H1238   1.039       .  S
N1207      C1212   1.349       .  A
N1207      C1211   1.346       .  A
N1208      C1215   1.350       .  A
N1208      C1216   1.353       .  A
C1209      C1217   1.385       .  A
C1209      C1225   1.416       .  A
C1210      C1226   1.416       .  A
C1210      C1218   1.385       .  A
C1211      C1219   1.388       .  A
C1211      C1228   1.405       .  A
C1212      C1227   1.401       .  A
C1212      C1220   1.386       .  A
C1213      C1225   1.413       .  A
C1213      C1221   1.386       .  A
C1214      C1228   1.413       .  A
C1214      C1222   1.386       .  A
C1215      C1223   1.387       .  A
C1215      C1226   1.413       .  A
C1216      C1224   1.384       .  A
C1216      C1227   1.411       .  A
C1217      C1218   1.369       .  A
C1217      H1229   1.082       .  S
C1218      H1230   1.081       .  S
C1219      C1220   1.372       .  A
C1219      H1231   1.082       .  S
C1220      H1232   1.082       .  S
C1221      C1222   1.381       .  A
C1221      H1233   1.082       .  S
C1222      H1234   1.082       .  S
C1223      C1224   1.379       .  A
C1223      H1235   1.082       .  S
C1224      H1236   1.082       .  S
C1225      C1336   1.489       .  S
C1226      C1276   1.485       .  S
C1227      C1288   1.480       .  S
C1228      C1324   1.480       .  S
N1239      H1271   1.038       .  S
N1239      C1244   1.347       .  A
N1239      C1243   1.348       .  A
N1240      C1247   1.351       .  A
N1240      C1248   1.350       .  A
N1241      H1272   1.036       .  S
N1241      C1246   1.353       .  A
N1241      C1245   1.353       .  A
N1242      C1249   1.353       .  A
N1242      C1250   1.353       .  A
C1243      C1251   1.387       .  A
C1243      C1259   1.403       .  A
C1244      C1260   1.405       .  A
C1244      C1252   1.387       .  A
C1245      C1253   1.385       .  A
C1245      C1262   1.416       .  A
C1246      C1261   1.416       .  A
C1246      C1254   1.384       .  A
C1247      C1259   1.410       .  A
C1247      C1255   1.385       .  A
C1248      C1262   1.412       .  A
C1248      C1256   1.387       .  A
C1249      C1257   1.385       .  A
C1249      C1260   1.416       .  A
C1250      C1258   1.385       .  A
C1250      C1261   1.416       .  A
C1251      C1252   1.372       .  A
C1251      H1263   1.082       .  S
C1252      H1264   1.082       .  S
C1253      C1254   1.371       .  A
C1253      H1265   1.082       .  S
C1254      H1266   1.081       .  S
C1255      C1256   1.379       .  A
C1255      H1267   1.082       .  S
C1256      H1268   1.082       .  S
C1257      C1258   1.381       .  A
C1257      H1269   1.082       .  S
C1258      H1270   1.082       .  S
C1259      C1381   1.478       .  S
C1260      C1420   1.483       .  S
C1261      C1429   1.495       .  S
C1262      C1369   1.489       .  S
C1273      C1274   1.409       .  A
C1273      C1278   1.413       .  A
C1274      C1275   1.409       .  A
C1274      H1279   1.083       .  S
C1275      C1276   1.405       .  A
C1275      O1280   1.371       .  S
C1276      C1277   1.399       .  A
C1277      C1278   1.390       .  A
C1277      H1281   1.084       .  S
C1278      O1282   1.372       .  S
O1280      H1284   0.991       .  S
O1282      H1283   0.992       .  S
C1285      C1286   1.408       .  A
C1285      C1290   1.416       .  A
C1286      C1287   1.407       .  A
C1286      H1291   1.083       .  S
C1287      C1288   1.407       .  A
C1287      O1292   1.369       .  S
C1288      C1289   1.397       .  A
C1289      C1290   1.391       .  A
C1289      H1293   1.085       .  S
C1290      O1294   1.372       .  S
O1292      H1296   0.991       .  S
O1294      H1295   0.992       .  S
C1297      C1298   1.399       .  A
C1297      C1302   1.410       .  A
C1298      C1299   1.399       .  A
C1298      H1303   1.084       .  S
C1299      C1300   1.411       .  A
C1299      O1304   1.373       .  S
C1300      C1301   1.400       .  A
C1301      C1302   1.406       .  A
C1301      H1305   1.081       .  S
C1302      O1306   1.371       .  S
O1304      H1308   0.992       .  S
O1306      H1307   0.992       .  S
C1309      C1310   1.410       .  A
C1309      C1314   1.406       .  A
C1310      C1311   1.400       .  A
C1310      H1315   1.080       .  S
C1311      C1312   1.402       .  A
C1311      O1316   1.371       .  S
C1312      C1313   1.406       .  A
C1313      C1314   1.397       .  A
C1313      H1317   1.084       .  S
C1314      O1318   1.372       .  S
O1316      H1320   0.992       .  S
O1318      H1319   0.992       .  S
C1321      C1322   1.410       .  A
C1321      C1326   1.406       .  A
C1322      C1323   1.400       .  A
C1322      H1327   1.084       .  S
C1323      C1324   1.401       .  A
C1323      O1328   1.371       .  S
C1324      C1325   1.406       .  A
C1325      C1326   1.394       .  A
C1325      H1329   1.084       .  S
C1326      O1330   1.372       .  S
O1330      H1331   0.992       .  S
C1333      C1334   1.405       .  A
C1333      C1338   1.410       .  A
C1334      C1335   1.405       .  A
C1334      H1339   1.083       .  S
C1335      C1336   1.409       .  A
C1335      O1340   1.370       .  S
C1336      C1337   1.402       .  A
C1337      C1338   1.399       .  A
C1337      H1341   1.084       .  S
C1338      O1342   1.372       .  S
O1340      H1344   0.991       .  S
O1342      H1343   0.992       .  S
C1345      C1346   1.398       .  A
C1345      C1350   1.415       .  A
C1346      C1347   1.398       .  A
C1346      H1351   1.084       .  S
C1347      C1348   1.413       .  A
C1347      O1352   1.369       .  S
C1348      C1349   1.400       .  A
C1349      C1350   1.397       .  A
C1349      H1353   1.084       .  S
C1350      O1354   1.372       .  S
O1352      H1356   0.992       .  S
O1354      H1355   0.992       .  S
C1357      C1358   1.403       .  A
C1357      C1362   1.404       .  A
C1358      C1359   1.400       .  A
C1358      H1363   1.077       .  S
C1359      C1360   1.409       .  A
C1359      O1364   1.371       .  S
C1360      C1361   1.408       .  A
C1361      C1362   1.394       .  A
C1361      H1365   1.084       .  S
C1362      O1366   1.372       .  S
O1364      H1368   0.992       .  S
O1366      H1367   0.991       .  S
C1369      C1370   1.405       .  A
C1369      C1374   1.409       .  A
C1370      C1371   1.406       .  A
C1370      H1375   1.083       .  S
C1371      C1372   1.412       .  A
C1371      O1376   1.372       .  S
C1372      C1373   1.401       .  A
C1373      C1374   1.394       .  A
C1373      H1377   1.084       .  S
C1374      O1378   1.374       .  S
O1376      H1380   0.991       .  S
O1378      H1379   0.992       .  S
C1381      C1382   1.402       .  A
C1381      C1386   1.408       .  A
C1382      C1383   1.403       .  A
C1382      H1387   1.084       .  S
C1383      C1384   1.411       .  A
C1383      O1388   1.372       .  S
C1384      C1385   1.397       .  A
C1385      C1386   1.393       .  A
C1385      H1389   1.084       .  S
C1386      O1390   1.372       .  S
O1388      H1392   0.992       .  S
O1390      H1391   0.991       .  S
C1393      C1394   1.405       .  A
C1393      C1398   1.411       .  A
C1394      C1395   1.409       .  A
C1394      H1399   1.082       .  S
C1395      C1396   1.413       .  A
C1395      O1400   1.371       .  S
C1396      C1397   1.402       .  A
C1397      C1398   1.396       .  A
C1397      H1401   1.084       .  S
C1398      O1402   1.374       .  S
O1400      H1404   0.992       .  S
O1402      H1403   0.992       .  S
C1405      C1406   1.409       .  A
C1405      C1410   1.411       .  A
C1406      C1407   1.413       .  A
C1406      H1411   1.083       .  S
C1407      C1408   1.411       .  A
C1407      O1412   1.369       .  S
C1408      C1409   1.402       .  A
C1409      C1410   1.395       .  A
C1409      H1413   1.084       .  S
C1410      O1414   1.372       .  S
O1412      H1416   0.991       .  S
O1414      H1415   0.992       .  S
C1417      C1418   1.406       .  A
C1417      C1422   1.404       .  A
C1418      C1419   1.402       .  A
C1418      H1423   1.084       .  S
C1419      C1420   1.403       .  A
C1419      O1424   1.368       .  S
C1420      C1421   1.405       .  A
C1421      C1422   1.394       .  A
C1421      H1425   1.083       .  S
C1422      O1426   1.372       .  S
O1424      H1428   0.992       .  S
O1426      H1427   0.992       .  S
C1429      C1430   1.403       .  A
C1429      C1434   1.409       .  A
C1430      C1431   1.398       .  A
C1430      H1435   1.084       .  S
C1431      C1432   1.409       .  A
C1431      O1436   1.372       .  S
C1432      C1433   1.408       .  A
C1433      C1434   1.410       .  A
C1433      H1437   1.082       .  S
C1434      O1438   1.370       .  S
O1436      H1440   0.992       .  S
O1438      H1439   0.991       .  S
C1441      C1442   1.398       .  A
C1441      C1446   1.409       .  A
C1442      C1443   1.396       .  A
C1442      H1447   1.084       .  S
C1443      C1444   1.417       .  A
C1443      O1448   1.372       .  S
C1444      C1445   1.409       .  A
C1445      C1446   1.410       .  A
C1445      H1449   1.083       .  S
C1446      O1450   1.370       .  S
O1448      H1452   0.992       .  S
O1450      H1451   0.991       .  S
C1453      C1454   1.410       .  A
C1453      C1458   1.412       .  A
C1454      C1455   1.399       .  A
C1454      H1459   1.083       .  S
C1455      C1456   1.405       .  A
C1455      O1460   1.372       .  S
C1456      C1457   1.403       .  A
C1457      C1458   1.404       .  A
C1457      H1461   1.075       .  S
C1458      O1462   1.371       .  S
O1460      H1464   0.992       .  S
O1462      H1463   0.992       .  S
N1465      H1497   1.042       .  S
N1465      C1469   1.362       .  A
N1466      C1473   1.367       .  A
N1466      C1474   1.368       .  A
N1467      H1498   1.042       .  S
N1467      C1472   1.361       .  A
N1468      C1475   1.361       .  A
N1468      C1476   1.358       .  A
C1469      C1477   1.389       .  A
C1469      C1485   1.434       .  A
C1470      C1486   1.436       .  A
C1470      C1478   1.387       .  A
C1471      C1479   1.391       .  A
C1471      C1488   1.435       .  A
C1472      C1487   1.424       .  A
C1472      C1480   1.385       .  A
C1473      C1485   1.444       .  A
C1473      C1481   1.388       .  A
C1474      C1488   1.444       .  A
C1474      C1482   1.387       .  A
C1475      C1483   1.390       .  A
C1475      C1486   1.431       .  A
C1476      C1484   1.384       .  A
C1476      C1487   1.422       .  A
C1477      H1489   1.082       .  S
C1478      H1490   1.081       .  S
C1479      H1491   1.081       .  S
C1480      H1492   1.082       .  S
C1481      C1482   1.382       .  A
C1481      H1493   1.080       .  S
C1482      H1494   1.081       .  S
C1483      C1484   1.377       .  A
C1483      H1495   1.080       .  S
C1484      H1496   1.082       .  S
C1485      C1577   1.537       .  S
C1486      C1598   1.534       .  S
C1487      C1621   1.505       .  S
C1488      C1555   1.541       .  S
N1499      H1531   1.039   1_556  S
N1500      C1507   1.358       .  A
N1500      C1508   1.359   1_455  A
N1501      H1532   1.034   1_556  S
N1502      C1509   1.364       .  A
N1502      C1510   1.364   1_455  A
C1503      C1511   1.385       .  A
C1503      C1519   1.437   1_556  A
C1504      C1520   1.444       .  A
C1504      C1512   1.393       .  A
C1505      C1513   1.389   1_554  A
C1505      C1522   1.434       .  A
C1506      C1521   1.436       .  A
C1506      C1514   1.391       .  A
C1507      C1519   1.425       .  A
C1507      C1515   1.388       .  A
C1508      C1522   1.425       .  A
C1508      C1516   1.386       .  A
C1509      C1517   1.390       .  A
C1509      C1520   1.442       .  A
C1510      C1518   1.384       .  A
C1510      C1521   1.436       .  A
C1511      H1523   1.081       .  S
C1512      H1524   1.081       .  S
C1513      H1525   1.082       .  S
C1514      H1526   1.082       .  S
C1515      C1516   1.377   1_455  A
C1515      H1527   1.082       .  S
C1516      H1528   1.082       .  S
C1517      C1518   1.381   1_455  A
C1517      H1529   1.080       .  S
C1518      H1530   1.082       .  S
C1519      C1551   1.517       .  S
C1520      C1623   1.537       .  S
C1521      C1600   1.518       .  S
C1522      C1575   1.509       .  S
Zn1533     O1537   1.983       .  S
Zn1533     O1538   2.040   1_554  S
Zn1533     O1549   2.090       .  S
Zn1534     O1537   1.960   1_556  S
Zn1534     O1539   2.056       .  S
Zn1534     O1541   1.961       .  S
Zn1534     O1545   1.996       .  S
Zn1535     O1540   2.030       .  S
Zn1535     O1543   2.095       .  S
Zn1535     O1546   2.007       .  S
Zn1536     O1537   1.995       .  S
Zn1536     O1547   2.095   1_554  S
Zn1536     O1548   2.100       .  S
O1538      C1550   1.280       .  A
O1539      C1551   1.273   1_556  A
O1540      C1552   1.275       .  A
O1541      C1550   1.269       .  A
O1542      C1552   1.278       .  A
O1544      C1553   1.283       .  A
O1545      C1554   1.272       .  A
O1546      C1553   1.276       .  A
O1547      C1554   1.283       .  A
O1548      C1555   1.282       .  A
O1549      C1555   1.277       .  A
C1550      C1905   1.463       .  S
C1552      C1920   1.481       .  S
C1553      C1941   1.496       .  S
C1554      C1932   1.500       .  S
Zn1556     O1561   1.995       .  S
Zn1556     O1565   2.086       .  S
Zn1556     O1572   2.013       .  S
Zn1557     O1560   1.994       .  S
Zn1557     O1562   2.095   1_554  S
Zn1557     O1568   2.096       .  S
Zn1558     O1560   1.952   1_556  S
Zn1558     O1563   2.030       .  S
Zn1558     O1566   1.978       .  S
Zn1558     O1569   1.964       .  S
Zn1559     O1560   1.980       .  S
Zn1559     O1567   2.046   1_554  S
Zn1559     O1570   2.081       .  S
O1561      C1573   1.275       .  A
O1562      C1574   1.283       .  A
O1563      C1575   1.270   1_556  A
O1564      C1573   1.283       .  A
O1566      C1574   1.271       .  A
O1567      C1576   1.279       .  A
O1568      C1577   1.282       .  A
O1569      C1576   1.267       .  A
O1570      C1577   1.276       .  A
O1571      C1578   1.276       .  A
O1572      C1578   1.273       .  A
C1573      C1884   1.487       .  S
C1574      C1893   1.488       .  S
C1576      C1872   1.465       .  S
C1578      C1860   1.474       .  S
Zn1579     O1583   1.971       .  S
Zn1579     O1584   2.040       .  S
Zn1579     O1588   2.088       .  S
Zn1580     O1583   1.975       .  S
Zn1580     O1585   1.995       .  S
Zn1580     O1587   2.034       .  S
Zn1580     O1591   2.119       .  S
Zn1581     O1583   1.981       .  S
Zn1581     O1586   2.066       .  S
Zn1581     O1589   2.031       .  S
Zn1582     O1590   1.982       .  S
Zn1582     O1593   2.053   1_556  S
Zn1582     O1594   1.966       .  S
O1584      C1596   1.279       .  A
O1585      C1597   1.276       .  A
O1586      C1598   1.275       .  A
O1587      C1596   1.276       .  A
O1588      C1598   1.278       .  A
O1589      C1597   1.279       .  A
O1590      C1599   1.271       .  A
O1591      C1600   1.282       .  A
O1592      C1599   1.278       .  A
O1594      C1601   1.269       .  A
O1595      C1601   1.280   1_554  A
C1596      C1821   1.481       .  S
C1597      C1848   1.480       .  S
C1599      C1833   1.476       .  S
C1601      C1809   1.474       .  S
Zn1602     O1606   1.962       .  S
Zn1602     O1607   1.979       .  S
Zn1602     O1611   2.062       .  S
Zn1602     O1618   1.986       .  S
Zn1603     O1606   1.998       .  S
Zn1603     O1610   2.069       .  S
Zn1603     O1614   2.078       .  S
Zn1604     O1609   2.068       .  S
Zn1604     O1612   1.961   1_554  S
Zn1604     O1615   1.967   1_554  S
Zn1605     O1606   1.981       .  S
Zn1605     O1616   2.104       .  S
Zn1605     O1617   2.069       .  S
O1607      C1619   1.272       .  A
O1608      C1620   1.280       .  A
O1610      C1619   1.281       .  A
O1611      C1621   1.274       .  A
O1612      C1620   1.269       .  A
O1613      C1622   1.280       .  A
O1614      C1623   1.280       .  A
O1615      C1622   1.269       .  A
O1616      C1623   1.281       .  A
O1617      C1624   1.283       .  A
O1618      C1624   1.270       .  A
C1619      C1761   1.485       .  S
C1620      C1773   1.483       .  S
C1622      C1800   1.469       .  S
C1624      C1785   1.474       .  S
N1625      H1657   1.034       .  S
N1625      C1630   1.356       .  A
N1625      C1629   1.354   1_455  A
N1626      C1633   1.353       .  A
N1626      C1634   1.355       .  A
N1627      H1658   1.039       .  S
N1627      C1632   1.351       .  A
N1627      C1631   1.350   1_455  A
N1628      C1635   1.354       .  A
N1628      C1636   1.355       .  A
C1629      C1637   1.387       .  A
C1629      C1645   1.421       .  A
C1630      C1646   1.418       .  A
C1630      C1638   1.385       .  A
C1631      C1639   1.387       .  A
C1631      C1648   1.410       .  A
C1632      C1647   1.409       .  A
C1632      C1640   1.386       .  A
C1633      C1645   1.420       .  A
C1633      C1641   1.387       .  A
C1634      C1648   1.416       .  A
C1634      C1642   1.384       .  A
C1635      C1643   1.386       .  A
C1635      C1646   1.419       .  A
C1636      C1644   1.385       .  A
C1636      C1647   1.419       .  A
C1637      C1638   1.368   1_655  A
C1637      H1649   1.078       .  S
C1638      H1650   1.080       .  S
C1639      C1640   1.373   1_655  A
C1639      H1651   1.082       .  S
C1640      H1652   1.081       .  S
C1641      C1642   1.382       .  A
C1641      H1653   1.082       .  S
C1642      H1654   1.082       .  S
C1643      C1644   1.381       .  A
C1643      H1655   1.082       .  S
C1644      H1656   1.082       .  S
C1645      C1896   1.497       .  S
C1646      C1929   1.496       .  S
C1647      C1944   1.493       .  S
C1648      C1881   1.495       .  S
N1659      H1691   1.037       .  S
N1659      C1664   1.357   1_655  A
N1659      C1663   1.355       .  A
N1660      C1667   1.347       .  A
N1660      C1668   1.351       .  A
N1661      H1692   1.041       .  S
N1661      C1666   1.351   1_655  A
N1661      C1665   1.353       .  A
N1662      C1669   1.350       .  A
N1662      C1670   1.350       .  A
C1663      C1671   1.389       .  A
C1663      C1679   1.419       .  A
C1664      C1680   1.419       .  A
C1664      C1672   1.387       .  A
C1665      C1673   1.387       .  A
C1665      C1682   1.411       .  A
C1666      C1681   1.410       .  A
C1666      C1674   1.387       .  A
C1667      C1679   1.410       .  A
C1667      C1675   1.386       .  A
C1668      C1682   1.410       .  A
C1668      C1676   1.385       .  A
C1669      C1677   1.385       .  A
C1669      C1680   1.411       .  A
C1670      C1678   1.386       .  A
C1670      C1681   1.414       .  A
C1671      C1672   1.358   1_655  A
C1671      H1683   1.080       .  S
C1672      H1684   1.081       .  S
C1673      C1674   1.363   1_655  A
C1673      H1685   1.082       .  S
C1674      H1686   1.082       .  S
C1675      C1676   1.376       .  A
C1675      H1687   1.082       .  S
C1676      H1688   1.082       .  S
C1677      C1678   1.379       .  A
C1677      H1689   1.082       .  S
C1678      H1690   1.082       .  S
C1679      C1845   1.482       .  S
C1680      C1788   1.491       .  S
C1681      C1797   1.490       .  S
C1682      C1836   1.489       .  S
N1693      H1725   1.034       .  S
N1693      C1698   1.351       .  A
N1693      C1697   1.355       .  A
N1694      C1701   1.350       .  A
N1694      C1702   1.350       .  A
N1695      H1726   1.039       .  S
N1695      C1700   1.348       .  A
N1695      C1699   1.346       .  A
N1696      C1703   1.350       .  A
N1696      C1704   1.353       .  A
C1697      C1705   1.384       .  A
C1697      C1713   1.416       .  A
C1698      C1714   1.416       .  A
C1698      C1706   1.384       .  A
C1699      C1707   1.388       .  A
C1699      C1716   1.405       .  A
C1700      C1715   1.400       .  A
C1700      C1708   1.386       .  A
C1701      C1713   1.413       .  A
C1701      C1709   1.386       .  A
C1702      C1716   1.413       .  A
C1702      C1710   1.386       .  A
C1703      C1711   1.387       .  A
C1703      C1714   1.413       .  A
C1704      C1712   1.384       .  A
C1704      C1715   1.410       .  A
C1705      C1706   1.369       .  A
C1705      H1717   1.082       .  S
C1706      H1718   1.081       .  S
C1707      C1708   1.373       .  A
C1707      H1719   1.082       .  S
C1708      H1720   1.082       .  S
C1709      C1710   1.381       .  A
C1709      H1721   1.082       .  S
C1710      H1722   1.082       .  S
C1711      C1712   1.380       .  A
C1711      H1723   1.082       .  S
C1712      H1724   1.082       .  S
C1713      C1824   1.491       .  S
C1714      C1764   1.486       .  S
C1715      C1776   1.479       .  S
C1716      C1812   1.481       .  S
N1727      H1759   1.038       .  S
N1727      C1732   1.346       .  A
N1727      C1731   1.348       .  A
N1728      C1735   1.351       .  A
N1728      C1736   1.349       .  A
N1729      H1760   1.036       .  S
N1729      C1734   1.353       .  A
N1729      C1733   1.353       .  A
N1730      C1737   1.351       .  A
N1730      C1738   1.351       .  A
C1731      C1739   1.388       .  A
C1731      C1747   1.402       .  A
C1732      C1748   1.404       .  A
C1732      C1740   1.387       .  A
C1733      C1741   1.385       .  A
C1733      C1750   1.415       .  A
C1734      C1749   1.414       .  A
C1734      C1742   1.383       .  A
C1735      C1747   1.409       .  A
C1735      C1743   1.385       .  A
C1736      C1750   1.411       .  A
C1736      C1744   1.387       .  A
C1737      C1745   1.385       .  A
C1737      C1748   1.413       .  A
C1738      C1746   1.385       .  A
C1738      C1749   1.413       .  A
C1739      C1740   1.372       .  A
C1739      H1751   1.082       .  S
C1740      H1752   1.082       .  S
C1741      C1742   1.370       .  A
C1741      H1753   1.082       .  S
C1742      H1754   1.081       .  S
C1743      C1744   1.381       .  A
C1743      H1755   1.082       .  S
C1744      H1756   1.082       .  S
C1745      C1746   1.380       .  A
C1745      H1757   1.082       .  S
C1746      H1758   1.082       .  S
C1747      C1869   1.478       .  S
C1748      C1908   1.479       .  S
C1749      C1917   1.490       .  S
C1750      C1857   1.486       .  S
C1761      C1762   1.409       .  A
C1761      C1766   1.413       .  A
C1762      C1763   1.409       .  A
C1762      H1767   1.083       .  S
C1763      C1764   1.405       .  A
C1763      O1768   1.371       .  S
C1764      C1765   1.399       .  A
C1765      C1766   1.391       .  A
C1765      H1769   1.084       .  S
C1766      O1770   1.372       .  S
O1768      H1772   0.991       .  S
O1770      H1771   0.992       .  S
C1773      C1774   1.408       .  A
C1773      C1778   1.415       .  A
C1774      C1775   1.406       .  A
C1774      H1779   1.083       .  S
C1775      C1776   1.406       .  A
C1775      O1780   1.369       .  S
C1776      C1777   1.399       .  A
C1777      C1778   1.391       .  A
C1777      H1781   1.085       .  S
C1778      O1782   1.373       .  S
O1780      H1784   0.992       .  S
O1782      H1783   0.992       .  S
C1785      C1786   1.400       .  A
C1785      C1790   1.410       .  A
C1786      C1787   1.399       .  A
C1786      H1791   1.084       .  S
C1787      C1788   1.411       .  A
C1787      O1792   1.373       .  S
C1788      C1789   1.401       .  A
C1789      C1790   1.407       .  A
C1789      H1793   1.082       .  S
C1790      O1794   1.371       .  S
O1792      H1796   0.992       .  S
O1794      H1795   0.992       .  S
C1797      C1798   1.411       .  A
C1797      C1802   1.406       .  A
C1798      C1799   1.399       .  A
C1798      H1803   1.080       .  S
C1799      C1800   1.401       .  A
C1799      O1804   1.371       .  S
C1800      C1801   1.405       .  A
C1801      C1802   1.397       .  A
C1801      H1805   1.084       .  S
C1802      O1806   1.372       .  S
O1804      H1808   0.992       .  S
O1806      H1807   0.992       .  S
C1809      C1810   1.410       .  A
C1809      C1814   1.406       .  A
C1810      C1811   1.401       .  A
C1810      H1815   1.084       .  S
C1811      C1812   1.401       .  A
C1811      O1816   1.371       .  S
C1812      C1813   1.406       .  A
C1813      C1814   1.394       .  A
C1813      H1817   1.084       .  S
C1814      O1818   1.372       .  S
O1818      H1819   0.992       .  S
C1821      C1822   1.405       .  A
C1821      C1826   1.410       .  A
C1822      C1823   1.406       .  A
C1822      H1827   1.083       .  S
C1823      C1824   1.409       .  A
C1823      O1828   1.370       .  S
C1824      C1825   1.402       .  A
C1825      C1826   1.400       .  A
C1825      H1829   1.084       .  S
C1826      O1830   1.372       .  S
O1828      H1832   0.991       .  S
O1830      H1831   0.992       .  S
C1833      C1834   1.398       .  A
C1833      C1838   1.414       .  A
C1834      C1835   1.398       .  A
C1834      H1839   1.084       .  S
C1835      C1836   1.413       .  A
C1835      O1840   1.369       .  S
C1836      C1837   1.400       .  A
C1837      C1838   1.398       .  A
C1837      H1841   1.084       .  S
C1838      O1842   1.372       .  S
O1840      H1844   0.992       .  S
O1842      H1843   0.992       .  S
C1845      C1846   1.402       .  A
C1845      C1850   1.404       .  A
C1846      C1847   1.400       .  A
C1846      H1851   1.075       .  S
C1847      C1848   1.409       .  A
C1847      O1852   1.371       .  S
C1848      C1849   1.408       .  A
C1849      C1850   1.394       .  A
C1849      H1853   1.084       .  S
C1850      O1854   1.372       .  S
O1852      H1856   0.992       .  S
O1854      H1855   0.991       .  S
C1857      C1858   1.404       .  A
C1857      C1862   1.408       .  A
C1858      C1859   1.405       .  A
C1858      H1863   1.083       .  S
C1859      C1860   1.411       .  A
C1859      O1864   1.371       .  S
C1860      C1861   1.401       .  A
C1861      C1862   1.394       .  A
C1861      H1865   1.084       .  S
C1862      O1866   1.373       .  S
O1864      H1868   0.992       .  S
O1866      H1867   0.992       .  S
C1869      C1870   1.401       .  A
C1869      C1874   1.409       .  A
C1870      C1871   1.402       .  A
C1870      H1875   1.084       .  S
C1871      C1872   1.412       .  A
C1871      O1876   1.372       .  S
C1872      C1873   1.396       .  A
C1873      C1874   1.393       .  A
C1873      H1877   1.084       .  S
C1874      O1878   1.372       .  S
O1876      H1880   0.992       .  S
O1878      H1879   0.991       .  S
C1881      C1882   1.406       .  A
C1881      C1886   1.409       .  A
C1882      C1883   1.410       .  A
C1882      H1887   1.082       .  S
C1883      C1884   1.413       .  A
C1883      O1888   1.371       .  S
C1884      C1885   1.404       .  A
C1885      C1886   1.396       .  A
C1885      H1889   1.084       .  S
C1886      O1890   1.373       .  S
O1888      H1892   0.992       .  S
O1890      H1891   0.992       .  S
C1893      C1894   1.408       .  A
C1893      C1898   1.412       .  A
C1894      C1895   1.412       .  A
C1894      H1899   1.083       .  S
C1895      C1896   1.410       .  A
C1895      O1900   1.369       .  S
C1896      C1897   1.402       .  A
C1897      C1898   1.395       .  A
C1897      H1901   1.084       .  S
C1898      O1902   1.372       .  S
O1900      H1904   0.991       .  S
O1902      H1903   0.992       .  S
C1905      C1906   1.407       .  A
C1905      C1910   1.402       .  A
C1906      C1907   1.401       .  A
C1906      H1911   1.084       .  S
C1907      C1908   1.402       .  A
C1907      O1912   1.369       .  S
C1908      C1909   1.404       .  A
C1909      C1910   1.391       .  A
C1909      H1913   1.082       .  S
C1910      O1914   1.372       .  S
O1912      H1916   0.992       .  S
O1914      H1915   0.992       .  S
C1917      C1918   1.402       .  A
C1917      C1922   1.408       .  A
C1918      C1919   1.397       .  A
C1918      H1923   1.084       .  S
C1919      C1920   1.408       .  A
C1919      O1924   1.372       .  S
C1920      C1921   1.406       .  A
C1921      C1922   1.408       .  A
C1921      H1925   1.082       .  S
C1922      O1926   1.369       .  S
O1924      H1928   0.992       .  S
O1926      H1927   0.991       .  S
C1929      C1930   1.398       .  A
C1929      C1934   1.411       .  A
C1930      C1931   1.397       .  A
C1930      H1935   1.084       .  S
C1931      C1932   1.418       .  A
C1931      O1936   1.372       .  S
C1932      C1933   1.411       .  A
C1933      C1934   1.413       .  A
C1933      H1937   1.083       .  S
C1934      O1938   1.370       .  S
O1936      H1940   0.992       .  S
O1938      H1939   0.991       .  S
C1941      C1942   1.411       .  A
C1941      C1946   1.413       .  A
C1942      C1943   1.400       .  A
C1942      H1947   1.083       .  S
C1943      C1944   1.406       .  A
C1943      O1948   1.372       .  S
C1944      C1945   1.403       .  A
C1945      C1946   1.405       .  A
C1945      H1949   1.077       .  S
C1946      O1950   1.371       .  S
O1948      H1952   0.992       .  S
O1950      H1951   0.992       .  S
