geometry optimzed in LAMMPS
_audit_creation_date              2020-11-30 
_audit_creation_method            'lammps2cif' 
_symmetry_space_group_name_H-M    'P1' 
_symmetry_Int_Tables_number       1 
_symmetry_cell_setting            triclinic 
loop_ 
_symmetry_equiv_pos_as_xyz 
  x,y,z 
_cell_length_a                    45.88592561 
_cell_length_b                    45.81003324801845 
_cell_length_c                    45.40995652140242 
_cell_angle_alpha                 89.90244843830598 
_cell_angle_beta                  90.2953114443017 
_cell_angle_gamma                 119.70927094871254 
loop_ 
_atom_site_label 
_atom_site_type_symbol 
_atom_site_fract_x 
_atom_site_fract_y 
_atom_site_fract_z 
_atom_site_charge 
C1          C  0.55813169  0.48745355  0.09025086     0.80900
N2          N  0.54503844  0.49913476  0.06952185    -0.77400
C3          C  0.51283363  0.47985255  0.06001323     0.83400
N4          N  0.49357031  0.44831642  0.07124737    -0.77300
C5          C  0.50640250  0.43655754  0.09228270     0.83500
N6          N  0.53849658  0.45624733  0.10148238    -0.79000
C7          C  0.45336782  0.48797706  0.00938417     0.80900
N8          N  0.46662906  0.47508384  0.02888382    -0.77400
C9          C  0.49891086  0.49369299  0.03826120     0.83400
N10         N  0.51830402  0.52537016  0.02763266    -0.77300
C11         C  0.50541831  0.53875124  0.00828306     0.83500
N12         N  0.47296253  0.51989217  0.99920414    -0.79000
O13         O  0.47320456  0.47772461  0.53773982    -0.71100
O14         O  0.55727141  0.51453079  0.57620547    -0.71300
O15         O  0.53095189  0.53575089  0.53447943    -0.71100
O16         O  0.49923127  0.45589105  0.57919615    -0.71100
O17         O  0.51645693  0.43472151  0.54528659    -0.71100
O18         O  0.54926902  0.51539359  0.50086451    -0.71100
O19         O  0.57498919  0.49301237  0.54306588    -0.71100
O20         O  0.49061171  0.45739419  0.50327466    -0.71200
V21         V  0.51556911  0.49554202  0.55623083     1.35200
V22         V  0.53251832  0.47547101  0.52376190     1.35200
C23         C  0.46747781  0.46161690  0.51390231     0.78200
C24         C  0.58055846  0.51027460  0.56631351     0.78200
C25         C  0.54549758  0.53934383  0.51006425     0.78100
C26         C  0.50203608  0.43147602  0.56971573     0.78100
O27         O  0.19328682  0.87306292  0.87805657    -0.71100
O28         O  0.15882049  0.79196720  0.92197499    -0.71300
O29         O  0.21838404  0.84944731  0.91940399    -0.71100
O30         O  0.13393838  0.81565392  0.88095787    -0.71100
O31         O  0.15040749  0.79419214  0.84675761    -0.71100
O32         O  0.23454620  0.82720685  0.88553418    -0.71100
O33         O  0.17542825  0.77059612  0.88768851    -0.71100
O34         O  0.20994339  0.85155214  0.84409424    -0.71200
V35         V  0.17650025  0.83219187  0.89944287     1.35200
V36         V  0.19228866  0.81140845  0.86663142     1.35200
C37         C  0.20744747  0.87619846  0.85350023     0.78200
C38         C  0.16102953  0.76734957  0.91207642     0.78200
C39         C  0.24065594  0.84366993  0.90926264     0.78100
C40         C  0.12744214  0.79846493  0.85762907     0.78100
C41         C  0.56975330  0.03401159  0.08830246     0.80900
N42         N  0.55670026  0.00836471  0.06853631    -0.77400
C43         C  0.52457039  0.99517960  0.05881300     0.83400
N44         N  0.50515898  0.00763120  0.06904347    -0.77300
C45         C  0.51765922  0.03306216  0.08903005     0.83500
N46         N  0.54995908  0.04611216  0.09841189    -0.79000
C47         C  0.46880064  0.93245197  0.00365920     0.80900
N48         N  0.48811685  0.91908054  0.99529513    -0.77400
C49         C  0.51890251  0.93006529  0.00751389     0.83400
N50         N  0.53056006  0.95487426  0.02798538    -0.77300
C51         C  0.51131895  0.96804831  0.03689879     0.83500
N52         N  0.48042440  0.95675648  0.02474730    -0.79000
C53         C  0.96158266  0.42837819  0.07789837     0.80900
N54         N  0.95044029  0.44786201  0.09051383    -0.77400
C55         C  0.96287276  0.48041474  0.08241652     0.83400
N56         N  0.98669464  0.49349411  0.06102520    -0.77300
C57         C  0.99843428  0.47435988  0.04839279     0.83500
N58         N  0.98592770  0.44189405  0.05707163    -0.79000
C59         C  0.05947181  0.53365038  0.99418528     0.80900
N60         N  0.07244537  0.51501236  0.98322325    -0.77400
C61         C  0.06190733  0.48337451  0.99301990     0.83400
N62         N  0.03758626  0.47008370  0.01396925    -0.77300
C63         C  0.02459923  0.48866756  0.02547376     0.83500
N64         N  0.03580281  0.52052357  0.01560734    -0.79000
O65         O  0.85053075  0.10051291  0.21242475    -0.71100
O66         O  0.88001341  0.18034774  0.16763338    -0.71300
O67         O  0.90741268  0.16028683  0.20988031    -0.71100
O68         O  0.82304700  0.12067989  0.17017055    -0.71100
O69         O  0.80391970  0.14027282  0.20383900    -0.71100
O70         O  0.88780214  0.17939477  0.24350618    -0.71100
O71         O  0.86110134  0.20005374  0.20136303    -0.71100
O72         O  0.83104726  0.11994254  0.24581487    -0.71200
V73         V  0.86486067  0.14080433  0.19066389     1.35200
V74         V  0.84632943  0.15956902  0.22291108     1.35200
C75         C  0.83571230  0.09649541  0.23678538     0.78200
C76         C  0.87598127  0.20405343  0.17704469     0.78200
C77         C  0.91194814  0.17653643  0.23358148     0.78100
C78         C  0.79897419  0.12348955  0.18045549     0.78100
C79         C  0.18251727  0.76068851  0.41352207     0.80900
N80         N  0.17006195  0.77271201  0.39244089    -0.77400
C81         C  0.18819599  0.80517746  0.38320419     0.83400
N82         N  0.21877209  0.82580000  0.39547920    -0.77300
C83         C  0.23126189  0.81429587  0.41696000     0.83500
N84         N  0.21287488  0.78175872  0.42565976    -0.79000
C85         C  0.12937941  0.81022897  0.32988871     0.80900
N86         N  0.14880696  0.84154659  0.31876367    -0.77400
C87         C  0.18093675  0.86114008  0.32791379     0.83400
N88         N  0.19381768  0.84931259  0.34880071    -0.77300
C89         C  0.17450899  0.81802934  0.36037585     0.83500
N90         N  0.14237667  0.79854647  0.35073050    -0.79000
C91         C  0.23423473  0.36194133  0.42812759     0.80900
N92         N  0.21464053  0.37418061  0.43832573    -0.77400
C93         C  0.18302867  0.36251612  0.42792810     0.83400
N94         N  0.17086217  0.33814372  0.40698854    -0.77300
C95         C  0.19022408  0.32578862  0.39632615     0.83500
N96         N  0.22194099  0.33774464  0.40694127    -0.79000
C97         C  0.13421052  0.26811435  0.33844766     0.80900
N98         N  0.14592531  0.29005764  0.36137423    -0.77400
C99         C  0.17737669  0.30100978  0.37227662     0.83400
N100        N  0.19713812  0.28982722  0.36015273    -0.77300
C101        C  0.18567642  0.26826243  0.33693378     0.83500
N102        N  0.15432342  0.25751629  0.32639992    -0.79000
O103        O  0.34084801  0.17302374  0.24794002    -0.71100
O104        O  0.39061999  0.14034121  0.20733450    -0.71300
O105        O  0.39109752  0.19930171  0.20872291    -0.71100
O106        O  0.33998702  0.11389013  0.24599431    -0.71100
O107        O  0.30476337  0.09707985  0.20950872    -0.71100
O108        O  0.35396058  0.18291970  0.17368583    -0.71100
O109        O  0.35555120  0.12477389  0.17077015    -0.71100
O110        O  0.30380661  0.15526762  0.21282833    -0.71200
V111        V  0.36492989  0.15631071  0.22679472     1.35200
V112        V  0.33023548  0.14033467  0.19235305     1.35200
C113        C  0.31385672  0.16981219  0.23752381     0.78200
C114        C  0.38179618  0.12689831  0.18223925     0.78200
C115        C  0.38081217  0.20584681  0.18500118     0.78100
C116        C  0.31367439  0.09071353  0.23395041     0.78100
O117        O  0.97346516  0.43226393  0.54798836    -0.71100
O118        O  0.02173491  0.51531197  0.50776806    -0.71300
O119        O  0.02187970  0.45662959  0.50725401    -0.71100
O120        O  0.97330743  0.49066889  0.54886937    -0.71100
O121        O  0.01215239  0.51059820  0.58267447    -0.71100
O122        O  0.05894165  0.47428605  0.54236316    -0.71100
O123        O  0.06012172  0.53376363  0.54185551    -0.71100
O124        O  0.01052212  0.45108576  0.58311492    -0.71200
V125        V  0.99834852  0.47414268  0.52862088     1.35200
V126        V  0.03472588  0.49203254  0.56181344     1.35200
C127        C  0.98357051  0.42743222  0.57246903     0.78200
C128        C  0.04906885  0.53876631  0.51789950     0.78200
C129        C  0.04842859  0.45902373  0.51809223     0.78100
C130        C  0.98478297  0.50673840  0.57266031     0.78100
C131        C  0.80728676  0.61179873  0.66371258     0.80900
N132        N  0.82731842  0.60066788  0.65245265    -0.77400
C133        C  0.85717560  0.60862558  0.66530820     0.83400
N134        N  0.86705336  0.62842529  0.68976201    -0.77300
C135        C  0.84704307  0.63954853  0.70137195     0.83500
N136        N  0.81709614  0.63092598  0.68841556    -0.79000
C137        C  0.89781297  0.69299472  0.76377727     0.80900
N138        N  0.88837785  0.67241165  0.73985172    -0.77400
C139        C  0.85750895  0.66115526  0.72757833     0.83400
N140        N  0.83640197  0.67092387  0.73904310    -0.77300
C141        C  0.84567822  0.69153105  0.76280151     0.83500
N142        N  0.87639129  0.70238109  0.77508661    -0.79000
O143        O  0.72375940  0.80672562  0.87425697    -0.71100
O144        O  0.67838684  0.84539848  0.91280369    -0.71300
O145        O  0.67611203  0.78568645  0.91563710    -0.71100
O146        O  0.72548243  0.86632618  0.87092867    -0.71100
O147        O  0.68740820  0.84572564  0.83671201    -0.71100
O148        O  0.63724804  0.76691627  0.88209850    -0.71100
O149        O  0.64031186  0.82699736  0.87849998    -0.71100
O150        O  0.68483883  0.78585711  0.84074960    -0.71200
V151        V  0.70022653  0.82569604  0.89272059     1.35200
V152        V  0.66319914  0.80675193  0.86016355     1.35200
C153        C  0.71191961  0.78916738  0.85131144     0.78200
C154        C  0.65175749  0.84302388  0.90235913     0.78200
C155        C  0.64802741  0.76242174  0.90639798     0.78100
C156        C  0.71471106  0.86980759  0.84614073     0.78100
C157        C  0.84878387  0.20144378  0.66934383     0.80900
N158        N  0.86075256  0.18629781  0.68760418    -0.77400
C159        C  0.84155698  0.15316960  0.69445952     0.83400
N160        N  0.81011763  0.13503704  0.68279777    -0.77300
C161        C  0.79784835  0.14995471  0.66442178     0.83500
N162        N  0.81745483  0.18302298  0.65802820    -0.79000
C163        C  0.85010157  0.08950050  0.73882908     0.80900
N164        N  0.88241344  0.10824716  0.74864582    -0.77400
C165        C  0.90131555  0.14124255  0.74097374     0.83400
N166        N  0.88753254  0.15541449  0.72363562    -0.77300
C167        C  0.85554810  0.13710769  0.71357936     0.83500
N168        N  0.83686901  0.10426600  0.72136185    -0.79000
O169        O  0.83762062  0.69042204  0.21054163    -0.71100
O170        O  0.87252158  0.64176744  0.17048063    -0.71300
O171        O  0.81352387  0.64157686  0.16981195    -0.71100
O172        O  0.89598854  0.69055048  0.21149390    -0.71100
O173        O  0.87862821  0.65049524  0.24388259    -0.71100
O174        O  0.79353764  0.60651127  0.20627108    -0.71100
O175        O  0.84984134  0.60195838  0.20296464    -0.71100
O176        O  0.82256304  0.65510045  0.24678722    -0.71200
V177        V  0.85455913  0.66532211  0.19116325     1.35200
V178        V  0.83648489  0.62916909  0.22430636     1.35200
C179        C  0.82482185  0.68158623  0.23582973     0.78200
C180        C  0.86692347  0.61338322  0.17969699     0.78200
C181        C  0.78893837  0.61643284  0.18160880     0.78100
C182        C  0.90143566  0.67860633  0.23466745     0.78100
C183        C  0.63313483  0.76713571  0.41579226     0.80900
N184        N  0.65910033  0.78069924  0.39658192    -0.77400
C185        C  0.67341157  0.81357199  0.38867382     0.83400
N186        N  0.66180299  0.83322461  0.40043171    -0.77300
C187        C  0.63596123  0.81991685  0.41998116     0.83500
N188        N  0.62195456  0.78698151  0.42737925    -0.79000
C189        C  0.74071013  0.87159294  0.33799164     0.80900
N190        N  0.71480903  0.85940003  0.35742303    -0.77400
C191        C  0.70133971  0.82729739  0.36752237     0.83400
N192        N  0.71367296  0.80745604  0.35783032    -0.77300
C193        C  0.73947763  0.81946919  0.33842268     0.83500
N194        N  0.75289910  0.85159635  0.32886949    -0.79000
O195        O  0.56683245  0.03149340  0.53691369    -0.71100
O196        O  0.48207391  0.97852044  0.49973403    -0.71300
O197        O  0.50780356  0.03098309  0.53675919    -0.71100
O198        O  0.54064616  0.97868976  0.49974744    -0.71100
O199        O  0.52447826  0.94493370  0.53722659    -0.71100
O200        O  0.49099651  0.99655336  0.57376062    -0.71100
O201        O  0.46555340  0.94438642  0.53703613    -0.71100
O202        O  0.54979751  0.99766956  0.57440440    -0.71200
V203        V  0.52408313  0.00430071  0.51900531     1.35200
V204        V  0.50810417  0.97152632  0.55483477     1.35200
C205        C  0.57259236  0.02382233  0.56221776     0.78200
C206        C  0.45919944  0.95275851  0.51233611     0.78200
C207        C  0.49326858  0.02233219  0.56142337     0.78100
C208        C  0.53804166  0.95275057  0.51211849     0.78100
C209        C  0.39603051  0.20258068  0.66410779     0.80900
N210        N  0.37273706  0.18980565  0.68583893    -0.77400
C211        C  0.36086477  0.15758316  0.69520753     0.83400
N212        N  0.37232497  0.13823671  0.68271514    -0.77300
C213        C  0.39549988  0.15087752  0.66093471     0.83500
N214        N  0.40705882  0.18290836  0.65189825    -0.79000
C215        C  0.29879131  0.09804128  0.74836341     0.80900
N216        N  0.32394015  0.11166839  0.72829114    -0.77400
C217        C  0.33472348  0.14323157  0.71784274     0.83400
N218        N  0.32033209  0.16109040  0.72762433    -0.77300
C219        C  0.29502047  0.14765321  0.74751952     0.83500
N220        N  0.28441482  0.11610743  0.75770831    -0.79000
O221        O  0.23105693  0.36012098  0.87450501    -0.71100
O222        O  0.14967851  0.31057270  0.83092783    -0.71300
O223        O  0.17229236  0.35988682  0.87165233    -0.71100
O224        O  0.20846784  0.31123082  0.83368300    -0.71100
O225        O  0.18963130  0.27423252  0.86876067    -0.71100
O226        O  0.15204741  0.32224661  0.90609113    -0.71100
O227        O  0.13049952  0.27303534  0.86549751    -0.71100
O228        O  0.21089193  0.32302399  0.90936209    -0.71200
V229        V  0.19000447  0.33476756  0.85338031     1.35200
V230        V  0.17111417  0.29885158  0.88673144     1.35200
C231        C  0.23492128  0.34995849  0.89940275     0.78200
C232        C  0.12618857  0.28308720  0.84074570     0.78200
C233        C  0.15597011  0.34948062  0.89536815     0.78100
C234        C  0.20544589  0.28456236  0.84479424     0.78100
C235        C  0.24071112  0.22645008  0.82953824    -0.13600
C236        C  0.24373628  0.22865217  0.79881387     0.16700
C237        C  0.23461097  0.24960948  0.78333432     0.03000
C238        C  0.22308459  0.26830666  0.79882883    -0.12100
C239        C  0.21951745  0.26575265  0.82960868    -0.03200
C240        C  0.22866164  0.24466797  0.84499651     0.02300
C241        C  0.25607008  0.20837804  0.78358157     0.09100
N242        N  0.23486406  0.25053344  0.75185994     0.65500
H243        H  0.21564134  0.28386799  0.78658681     0.18400
N244        N  0.22680317  0.24217049  0.87636628     0.76000
H245        H  0.24785904  0.21053619  0.84159361     0.09900
C246        C  0.28751057  0.22339047  0.76957463     0.03600
C247        C  0.29907446  0.20312874  0.75701738    -0.05100
C248        C  0.28018385  0.16785900  0.75875455    -0.23500
C249        C  0.24829994  0.15296078  0.77232526     0.12800
C250        C  0.23663440  0.17327958  0.78453916    -0.12700
N251        N  0.30903289  0.25904861  0.76978209     0.64500
H252        H  0.32371434  0.21519580  0.74711965     0.12400
N253        N  0.22720616  0.11730225  0.77369195     0.61200
H254        H  0.21235187  0.16158442  0.79512468     0.08500
O255        O  0.25201015  0.26171757  0.89170734    -0.40300
O256        O  0.20273206  0.21684083  0.88826392    -0.39500
O257        O  0.21140718  0.22670700  0.73772566    -0.39500
O258        O  0.25382812  0.27772505  0.73874352    -0.37200
O259        O  0.20623000  0.10223906  0.75333239    -0.38100
O260        O  0.22519550  0.10201754  0.79740232    -0.34200
O261        O  0.32443658  0.27337813  0.79316342    -0.35600
O262        O  0.31800177  0.27482219  0.74572308    -0.39900
C263        C  0.46133458  0.08349659  0.57583446    -0.13600
C264        C  0.45226820  0.07690992  0.60558276     0.16700
C265        C  0.45617070  0.05206228  0.62039944     0.03000
C266        C  0.46941747  0.03460993  0.60554288    -0.12100
C267        C  0.47910111  0.04148281  0.57587153    -0.03200
C268        C  0.47467557  0.06609983  0.56090513     0.02300
C269        C  0.43806876  0.09568863  0.62057249     0.09100
N270        N  0.44769691  0.04493851  0.65080560     0.65500
H271        H  0.47257333  0.01592534  0.61752894     0.18400
N272        N  0.48250729  0.07304057  0.53037783     0.76000
H273        H  0.45755540  0.10188389  0.56401221     0.09900
C274        C  0.45583666  0.13102160  0.62161868     0.03600
C275        C  0.44138331  0.14822331  0.63483824    -0.05100
C276        C  0.40918221  0.13089734  0.64727131    -0.23500
C277        C  0.39119252  0.09542604  0.64598399     0.12800
C278        C  0.40580792  0.07817440  0.63277512    -0.12700
N279        N  0.48896417  0.14981378  0.60992342     0.64500
H280        H  0.45579787  0.17537970  0.63571023     0.12400
N281        N  0.35744577  0.07663893  0.65629169     0.61200
H282        H  0.39152837  0.05105793  0.63125725     0.08500
O283        O  0.50873017  0.09950872  0.52283451    -0.40300
O284        O  0.46060473  0.05601819  0.51120711    -0.39500
O285        O  0.42248282  0.01745349  0.65810154    -0.39500
O286        O  0.46833615  0.06328906  0.67029751    -0.37200
O287        O  0.33366559  0.07328426  0.63992477    -0.38100
O288        O  0.35106900  0.05847307  0.67890334    -0.34200
O289        O  0.49394636  0.16733226  0.58705411    -0.35600
O290        O  0.51367733  0.15350055  0.62509717    -0.39900
C291        C  0.57202625  0.91571816  0.45573049    -0.13600
C292        C  0.57844049  0.89450892  0.47349781     0.16700
C293        C  0.57081347  0.89186671  0.50373246     0.03000
C294        C  0.55689486  0.91038009  0.51564694    -0.12100
C295        C  0.55099481  0.93223133  0.49804482    -0.03200
C296        C  0.55841177  0.93450050  0.46764631     0.02300
C297        C  0.59307245  0.87537629  0.45992246     0.09100
N298        N  0.57874710  0.87196039  0.52289829     0.65500
H299        H  0.55178465  0.90848057  0.53904189     0.18400
N300        N  0.55166012  0.95515115  0.44838996     0.76000
H301        H  0.57751641  0.91758823  0.43240083     0.09900
C302        C  0.57400733  0.84037657  0.45602469     0.03600
C303        C  0.58852490  0.82315852  0.44278906    -0.05100
C304        C  0.62202097  0.84013308  0.43307673    -0.23500
C305        C  0.64100538  0.87534846  0.43683638     0.12800
C306        C  0.62638064  0.89261331  0.45010364    -0.12700
N307        N  0.53944674  0.82208642  0.46425649     0.64500
H308        H  0.57315032  0.79642299  0.43956258     0.12400
N309        N  0.67540993  0.89387487  0.42833268     0.61200
H310        H  0.64117067  0.91953401  0.45304342     0.08500
O311        O  0.52379201  0.94271609  0.43515170    -0.40300
O312        O  0.57540467  0.98329714  0.44037806    -0.39500
O313        O  0.60880826  0.88287720  0.53077103    -0.39500
O314        O  0.55555130  0.84758856  0.53658663    -0.37200
O315        O  0.68318282  0.91039618  0.40464178    -0.38100
O316        O  0.69800953  0.89928886  0.44699611    -0.34200
O317        O  0.51754388  0.82158249  0.44702064    -0.35600
O318        O  0.53045459  0.80079435  0.48478066    -0.39900
C319        C  0.74797846  0.74435734  0.31381518    -0.13600
C320        C  0.78055009  0.76058449  0.30217324     0.16700
C321        C  0.79980022  0.79588243  0.30376577     0.03000
C322        C  0.78612268  0.81429614  0.31619730    -0.12100
C323        C  0.75322791  0.79826830  0.32728778    -0.03200
C324        C  0.73420235  0.76278714  0.32629941     0.02300
C325        C  0.79272124  0.74068073  0.28582652     0.09100
N326        N  0.83335977  0.81345405  0.29282232     0.65500
H327        H  0.80142654  0.84137325  0.31703526     0.18400
N328        N  0.70013332  0.74512623  0.33592423     0.76000
H329        H  0.73259371  0.71736966  0.31199980     0.09900
C330        C  0.79398158  0.71338821  0.29882703     0.03600
C331        C  0.80412508  0.69429120  0.28214735    -0.05100
C332        C  0.81318403  0.70186714  0.25239204    -0.23500
C333        C  0.81147385  0.72906658  0.23934646     0.12800
C334        C  0.80131749  0.74805396  0.25607648    -0.12700
N335        N  0.78578408  0.70522490  0.32915039     0.64500
H336        H  0.80531241  0.67374018  0.29271555     0.12400
N337        N  0.81895617  0.73726701  0.20892417     0.61200
H338        H  0.79939185  0.76821636  0.24554754     0.08500
O339        O  0.69288880  0.72891820  0.35978093    -0.40300
O340        O  0.67696374  0.74085290  0.31833057    -0.39500
O341        O  0.83973821  0.83107909  0.26984141    -0.39500
O342        O  0.85719521  0.81646294  0.30891245    -0.37200
O343        O  0.79613132  0.72274579  0.18984025    -0.38100
O344        O  0.84631707  0.76267786  0.20173491    -0.34200
O345        O  0.75875745  0.67920829  0.33597601    -0.35600
O346        O  0.80789285  0.72047951  0.34865076    -0.39900
C347        C  0.05840428  0.25034157  0.78065133    -0.13600
C348        C  0.03106840  0.22494448  0.79593697     0.16700
C349        C  0.03533910  0.21842037  0.82541460     0.03000
C350        C  0.06641572  0.23749080  0.83939500    -0.12100
C351        C  0.09401193  0.26313151  0.82437248    -0.03200
C352        C  0.08987362  0.26911393  0.79443928     0.02300
C353        C  0.99850924  0.20422149  0.78068182     0.09100
N354        N  0.00808980  0.19256787  0.84152385     0.65500
H355        H  0.06878869  0.23224319  0.86225931     0.18400
N356        N  0.11764216  0.29277328  0.77729391     0.76000
H357        H  0.05551796  0.25495442  0.75771914     0.09900
C358        C  0.97662884  0.21674652  0.77481009     0.03600
C359        C  0.94553096  0.19606468  0.76125901    -0.05100
C360        C  0.93564712  0.16273524  0.75325635    -0.23500
C361        C  0.95834902  0.15070032  0.75802670     0.12800
C362        C  0.98921842  0.17134674  0.77214728    -0.12700
N363        N  0.98517128  0.25002845  0.78348349     0.64500
H364        H  0.92862910  0.20587663  0.75775780     0.12400
N365        N  0.95159355  0.11869332  0.74691667     0.61200
H366        H  0.00649368  0.16202764  0.77585993     0.08500
O367        O  0.13718735  0.28404617  0.76589355    -0.40300
O368        O  0.11938887  0.32006582  0.76958115    -0.39500
O369        O  0.00622672  0.16434360  0.84485058    -0.39500
O370        O  0.98831285  0.19921309  0.85536491    -0.37200
O371        O  0.95914534  0.10032801  0.76218974    -0.38100
O372        O  0.94467209  0.11200689  0.71996446    -0.34200
O373        O  0.99333414  0.27263187  0.76424113    -0.35600
O374        O  0.97999689  0.25560704  0.80959894    -0.39900
C375        C  0.63959521  0.06490730  0.62146906    -0.13600
C376        C  0.66889536  0.07981419  0.60458397     0.16700
C377        C  0.66637984  0.07749340  0.57360074     0.03000
C378        C  0.63470134  0.06022412  0.56009299    -0.12100
C379        C  0.60535738  0.04447852  0.57703796    -0.03200
C380        C  0.60799218  0.04742554  0.60801345     0.02300
C381        C  0.70173369  0.09777515  0.61989527     0.09100
N382        N  0.69573054  0.09074949  0.55567663     0.65500
H383        H  0.63313769  0.05788180  0.53633927     0.18400
N384        N  0.57875981  0.03387418  0.62607258     0.76000
H385        H  0.64128870  0.06708280  0.64523645     0.09900
C386        C  0.72167303  0.13293434  0.61844045     0.03600
C387        C  0.75250769  0.14907981  0.63323038    -0.05100
C388        C  0.76410707  0.13096053  0.65011503    -0.23500
C389        C  0.74350393  0.09562332  0.65204230     0.12800
C390        C  0.71269960  0.07946373  0.63693085    -0.12700
N391        N  0.71033167  0.15278271  0.60309414     0.64500
H392        H  0.76714284  0.17616421  0.63169015     0.12400
N393        N  0.75336604  0.07560736  0.66894802     0.61200
H394        H  0.69727883  0.05242011  0.63840249     0.08500
O395        O  0.56493690  0.05123328  0.63126899    -0.40300
O396        O  0.57041263  0.00751051  0.64076272    -0.39500
O397        O  0.71126591  0.07458562  0.55329436    -0.39500
O398        O  0.70168700  0.11404204  0.53766978    -0.37200
O399        O  0.74203937  0.06662201  0.69463076    -0.38100
O400        O  0.76829053  0.06213451  0.65653062    -0.34200
O401        O  0.68816623  0.15771406  0.61460925    -0.35600
O402        O  0.72704895  0.17078024  0.58167383    -0.39900
C403        C  0.77508858  0.96020510  0.82286343    -0.13600
C404        C  0.76663789  0.95966323  0.79308289     0.16700
C405        C  0.74108853  0.92950574  0.78076085     0.03000
C406        C  0.72437544  0.90071642  0.79845906    -0.12100
C407        C  0.73307473  0.90108341  0.82833702    -0.03200
C408        C  0.75877623  0.93142756  0.84044589     0.02300
C409        C  0.78636862  0.99068735  0.77548140     0.09100
N410        N  0.73305757  0.92714339  0.75008090     0.65500
H411        H  0.70503776  0.87772544  0.78849999     0.18400
N412        N  0.76841634  0.93376418  0.87066932     0.76000
H413        H  0.79472855  0.98324002  0.83253992     0.09900
C414        C  0.77249298  0.01000771  0.76458776     0.03600
C415        C  0.79340016  0.04124270  0.75124701    -0.05100
C416        C  0.82832742  0.05416813  0.74910751    -0.23500
C417        C  0.84172143  0.03391213  0.75899055     0.12800
C418        C  0.82075765  0.00267016  0.77204247    -0.12700
N419        N  0.73787716  0.99966026  0.76903942     0.64500
H420        H  0.78244651  0.05626996  0.74414570     0.12400
N421        N  0.87647384  0.04434621  0.75574496     0.61200
H422        H  0.83152419  0.98776805  0.78001078     0.08500
O423        O  0.75590134  0.94472238  0.88932819    -0.40300
O424        O  0.79385842  0.93142887  0.87755346    -0.39500
O425        O  0.75069005  0.92190197  0.73191980    -0.39500
O426        O  0.70467772  0.92249336  0.74212431    -0.37200
O427        O  0.89334811  0.04482536  0.77796040    -0.38100
O428        O  0.88814135  0.04600891  0.73031319    -0.34200
O429        O  0.72812148  0.00253019  0.79425248    -0.35600
O430        O  0.71888424  0.99421418  0.74708132    -0.39900
C431        C  0.76990174  0.70068309  0.78250336    -0.13600
C432        C  0.78582094  0.73340598  0.79408075     0.16700
C433        C  0.82113769  0.75209047  0.79478814     0.03000
C434        C  0.83989423  0.73766177  0.78494822    -0.12100
C435        C  0.82418035  0.70486652  0.77358185    -0.03200
C436        C  0.78875369  0.68638957  0.77204358     0.02300
C437        C  0.76567450  0.74656582  0.80831352     0.09100
N438        N  0.83836393  0.78612014  0.80490744     0.65500
H439        H  0.86697128  0.75257322  0.78562520     0.18400
N440        N  0.77148944  0.65256665  0.76142223     0.76000
H441        H  0.74283220  0.68581245  0.78246979     0.09900
C442        C  0.74053004  0.74972936  0.79312238     0.03600
C443        C  0.72272451  0.76298207  0.80760413    -0.05100
C444        C  0.72962602  0.77326427  0.83718721    -0.23500
C445        C  0.75406341  0.76888990  0.85258517     0.12800
C446        C  0.77167462  0.75562920  0.83810009    -0.12700
N447        N  0.73362490  0.74075696  0.76274617     0.64500
H448        H  0.70408237  0.76601159  0.79542354     0.12400
N449        N  0.76076521  0.77687198  0.88317405     0.61200
H450        H  0.79005045  0.75216679  0.85028774     0.08500
O451        O  0.75938290  0.64660099  0.73569350    -0.40300
O452        O  0.76276862  0.62860093  0.77933817    -0.39500
O453        O  0.85486649  0.79338104  0.82867720    -0.39500
O454        O  0.84222784  0.80935766  0.78762613    -0.37200
O455        O  0.74396075  0.75481186  0.90217896    -0.38100
O456        O  0.78713667  0.80318711  0.89091805    -0.34200
O457        O  0.70725933  0.71412882  0.75557828    -0.35600
O458        O  0.75013719  0.76224129  0.74324486    -0.39900
C459        C  0.91819746  0.51827765  0.61069824    -0.13600
C460        C  0.93411032  0.55348035  0.61236205     0.16700
C461        C  0.96724755  0.57295728  0.60224025     0.03000
C462        C  0.98380585  0.55709618  0.59022545    -0.12100
C463        C  0.96750688  0.52202132  0.58772603    -0.03200
C464        C  0.93469605  0.50245147  0.59844324     0.02300
C465        C  0.91576406  0.56929531  0.62511794     0.09100
N466        N  0.98368889  0.60883495  0.60258596     0.65500
H467        H  0.00892724  0.57218924  0.58184192     0.18400
N468        N  0.91846807  0.46657374  0.59814874     0.76000
H469        H  0.89305335  0.50312956  0.61912672     0.09900
C470        C  0.88643792  0.56534223  0.61165885     0.03600
C471        C  0.86807784  0.57840845  0.62510990    -0.05100
C472        C  0.87822302  0.59550884  0.65226878    -0.23500
C473        C  0.90790019  0.59941610  0.66576538     0.12800
C474        C  0.92650912  0.58664121  0.65190241    -0.12700
N475        N  0.87517851  0.54840805  0.58402248     0.64500
H476        H  0.84580080  0.57502467  0.61405215     0.12400
N477        N  0.91890844  0.61486750  0.69400949     0.61200
H478        H  0.94874363  0.58918575  0.66259878     0.08500
O479        O  0.89487676  0.45008536  0.58017162    -0.40300
O480        O  0.92396938  0.45142121  0.61878698    -0.39500
O481        O  0.00779865  0.62517697  0.62013863    -0.39500
O482        O  0.97792148  0.62408569  0.58221607    -0.37200
O483        O  0.90468164  0.59829876  0.71686832    -0.38100
O484        O  0.94687113  0.64145085  0.69636868    -0.34200
O485        O  0.84996557  0.51925761  0.58307742    -0.35600
O486        O  0.88708029  0.56441411  0.56041136    -0.39900
C487        C  0.92302880  0.28759477  0.65038129    -0.13600
C488        C  0.90644041  0.30310849  0.63718967     0.16700
C489        C  0.87111442  0.28604280  0.63680499     0.03000
C490        C  0.85308678  0.25353673  0.64823778    -0.12100
C491        C  0.86949849  0.23725636  0.66042434    -0.03200
C492        C  0.90496224  0.25502203  0.66206976     0.02300
C493        C  0.92612823  0.33534243  0.62114226     0.09100
N494        N  0.85312723  0.30138033  0.62471463     0.65500
H495        H  0.82598818  0.24091988  0.64727190     0.18400
N496        N  0.92318849  0.23976865  0.67374868     0.76000
H497        H  0.95013012  0.30015040  0.65037140     0.09900
C498        C  0.95206927  0.36413059  0.63486645     0.03600
C499        C  0.97086564  0.39360344  0.61854237    -0.05100
C500        C  0.96410881  0.39517220  0.58851485    -0.23500
C501        C  0.93828671  0.36607754  0.57472717     0.12800
C502        C  0.91977023  0.33661864  0.59104342    -0.12700
N503        N  0.95883382  0.36420688  0.66561753     0.64500
H504        H  0.99029056  0.41556903  0.62965335     0.12400
N505        N  0.93104051  0.36557825  0.54401362     0.61200
H506        H  0.90065680  0.31440335  0.57998266     0.08500
O507        O  0.93626969  0.24793855  0.69905120    -0.40300
O508        O  0.93059799  0.22234625  0.65717960    -0.39500
O509        O  0.83548645  0.28928759  0.60181021    -0.39500
O510        O  0.85050819  0.32328799  0.63944815    -0.37200
O511        O  0.94718041  0.35866804  0.52553486    -0.38100
O512        O  0.90506406  0.36628722  0.53586989    -0.34200
O513        O  0.98582656  0.36576719  0.67401306    -0.35600
O514        O  0.94079672  0.36846280  0.68405879    -0.39900
C515        C  0.22453833  0.23758838  0.28028856    -0.13600
C516        C  0.23871623  0.22276755  0.29813568     0.16700
C517        C  0.23743853  0.22536326  0.32910443     0.03000
C518        C  0.22167020  0.24198443  0.34146667    -0.12100
C519        C  0.20626515  0.25535909  0.32348012    -0.03200
C520        C  0.20803793  0.25332263  0.29263931     0.02300
C521        C  0.25673370  0.20702100  0.28384679     0.09100
N522        N  0.25064305  0.20996333  0.34833445     0.65500
H523        H  0.22003000  0.24297231  0.36516206     0.18400
N524        N  0.19403262  0.26804571  0.27352229     0.76000
H525        H  0.22666730  0.23741462  0.25662192     0.09900
C526        C  0.24237473  0.18399869  0.26028628     0.03600
C527        C  0.26139265  0.17240885  0.24541726    -0.05100
C528        C  0.29461511  0.18279037  0.25384703    -0.23500
C529        C  0.30874867  0.20540171  0.27776451     0.12800
C530        C  0.28994724  0.21746709  0.29220857    -0.12700
N531        N  0.20827749  0.17162346  0.25147424     0.64500
H532        H  0.24987490  0.15482934  0.22746922     0.12400
N533        N  0.34259523  0.21743600  0.28712846     0.61200
H534        H  0.30180523  0.23590073  0.30946674     0.08500
O535        O  0.16725748  0.24943676  0.25958864    -0.40300
O536        O  0.21108981  0.29878125  0.26697793    -0.39500
O537        O  0.27521766  0.22807006  0.36491336    -0.39500
O538        O  0.23410858  0.17866793  0.35266346    -0.37200
O539        O  0.36595917  0.24383306  0.27585797    -0.38100
O540        O  0.34837546  0.20513388  0.30981127    -0.34200
O541        O  0.20189075  0.17911530  0.22642146    -0.35600
O542        O  0.18496522  0.14852443  0.26616199    -0.39900
C543        C  0.15615936  0.42071275  0.46287188    -0.13600
C544        C  0.12143613  0.39947478  0.46534511     0.16700
C545        C  0.10675464  0.36656384  0.45395654     0.03000
C546        C  0.12704908  0.35522870  0.44102691    -0.12100
C547        C  0.16204327  0.37615196  0.43951982    -0.03200
C548        C  0.17648647  0.40943567  0.45022386     0.02300
C549        C  0.10124687  0.41276585  0.47933173     0.09100
N550        N  0.07153048  0.34392411  0.45652336     0.65500
H551        H  0.11549140  0.32960976  0.43307647     0.18400
N552        N  0.21159254  0.43259014  0.44750692     0.76000
H553        H  0.16756010  0.44643421  0.47052078     0.09900
C554        C  0.10899637  0.42646571  0.50792582     0.03600
C555        C  0.09182637  0.44172792  0.51974110    -0.05100
C556        C  0.06653616  0.44360508  0.50368007    -0.23500
C557        C  0.05867772  0.42974942  0.47498089     0.12800
C558        C  0.07601518  0.41447602  0.46311967    -0.12700
N559        N  0.13389974  0.42450052  0.52550998     0.64500
H560        H  0.09812430  0.45172920  0.54187381     0.12400
N561        N  0.03406159  0.43192671  0.45717755     0.61200
H562        H  0.07043543  0.40481183  0.44085083     0.08500
O563        O  0.22970604  0.44298182  0.47033310    -0.40300
O564        O  0.22304571  0.44718120  0.42324217    -0.39500
O565        O  0.05312632  0.33567129  0.43385030    -0.39500
O566        O  0.05996820  0.32791525  0.48019292    -0.37200
O567        O  0.04261407  0.45741792  0.44116118    -0.38100
O568        O  0.00549558  0.40634306  0.45373138    -0.34200
O569        O  0.16149363  0.45075960  0.53062785    -0.35600
O570        O  0.12609110  0.39814801  0.54003490    -0.39900
C571        C  0.03705420  0.74378368  0.32049357    -0.13600
C572        C  0.03151946  0.74923094  0.29103450     0.16700
C573        C  0.05826556  0.77435636  0.27474774     0.03000
C574        C  0.08957336  0.79383594  0.28802479    -0.12100
C575        C  0.09531636  0.78865206  0.31747471    -0.03200
C576        C  0.06867772  0.76314373  0.33378111     0.02300
C577        C  0.99735276  0.73044437  0.27799088     0.09100
N578        N  0.05420967  0.77997065  0.24439849     0.65500
H579        H  0.10970309  0.81278214  0.27490401     0.18400
N580        N  0.07267764  0.75779583  0.36419677     0.76000
H581        H  0.01653527  0.72520485  0.33349457     0.09900
C582        C  0.97924883  0.69502483  0.27695274     0.03600
C583        C  0.94764201  0.67850411  0.26332616    -0.05100
C584        C  0.93375665  0.69677352  0.25046488    -0.23500
C585        C  0.95124838  0.73210255  0.25253228     0.12800
C586        C  0.98269975  0.74857414  0.26628377    -0.12700
N587        N  0.99312538  0.67552420  0.28858565     0.64500
H588        H  0.93438536  0.65134532  0.26200355     0.12400
N589        N  0.93671931  0.75149188  0.24201800     0.61200
H590        H  0.99566422  0.77568583  0.26802103     0.08500
O591        O  0.07456171  0.73226793  0.37176991    -0.40300
O592        O  0.06769808  0.77456760  0.38353887    -0.39500
O593        O  0.05494953  0.80682723  0.23675632    -0.39500
O594        O  0.05594232  0.76120227  0.22500963    -0.37200
O595        O  0.91643368  0.75522401  0.25807870    -0.38100
O596        O  0.94803765  0.76902719  0.21905259    -0.34200
O597        O  0.98196326  0.65972272  0.31240988    -0.35600
O598        O  0.01141297  0.66888233  0.27248056    -0.39900
C599        C  0.25247994  0.94040525  0.29434444    -0.13600
C600        C  0.23778170  0.96085393  0.29167066     0.16700
C601        C  0.20427870  0.94810754  0.30070732     0.03000
C602        C  0.18629061  0.91561148  0.31242246    -0.12100
C603        C  0.20107697  0.89526609  0.31535756    -0.03200
C604        C  0.23433492  0.90766587  0.30570744     0.02300
C605        C  0.25696904  0.99438177  0.27742840     0.09100
N606        N  0.18837607  0.96810907  0.29862839     0.65500
H607        H  0.16073260  0.90637040  0.31957831     0.18400
N608        N  0.24894735  0.88640565  0.30479106     0.76000
H609        H  0.27762518  0.94933441  0.28624711     0.09900
C610        C  0.28767017  0.01959884  0.28914304     0.03600
C611        C  0.30560313  0.05062511  0.27474580    -0.05100
C612        C  0.29384166  0.05711726  0.24822910    -0.23500
C613        C  0.26331507  0.03133667  0.23615299     0.12800
C614        C  0.24516823  0.00056541  0.25092062    -0.12700
N615        N  0.30077245  0.01421647  0.31592964     0.64500
H616        H  0.32890655  0.06966076  0.28443047     0.12400
N617        N  0.25059129  0.03550592  0.20861945     0.61200
H618        H  0.22208375  0.98108757  0.24126295     0.08500
O619        O  0.27785036  0.89661229  0.31543748    -0.40300
O620        O  0.23612784  0.86082068  0.28833161    -0.39500
O621        O  0.16529034  0.96067327  0.27994043    -0.39500
O622        O  0.19313008  0.98910208  0.31864801    -0.37200
O623        O  0.25830946  0.02626751  0.18516679    -0.38100
O624        O  0.22702795  0.04220269  0.20828422    -0.34200
O625        O  0.32411004  0.00721671  0.31502435    -0.35600
O626        O  0.29316606  0.02202660  0.34017823    -0.39900
C627        C  0.31887945  0.88772031  0.43483744    -0.13600
C628        C  0.32893848  0.87377825  0.45755326     0.16700
C629        C  0.30617708  0.84129715  0.46773151     0.03000
C630        C  0.27445838  0.82311275  0.45473057    -0.12100
C631        C  0.26454041  0.83635958  0.43117339    -0.03200
C632        C  0.28708769  0.86947840  0.42164662     0.02300
C633        C  0.36262167  0.89403900  0.47127286     0.09100
N634        N  0.31516081  0.82579790  0.49070315     0.65500
H635        H  0.25794017  0.79836232  0.46295399     0.18400
N636        N  0.27853021  0.88522759  0.39863596     0.76000
H637        H  0.33555612  0.91305022  0.42757056     0.09900
C638        C  0.39209770  0.90961089  0.45417483     0.03600
C639        C  0.42329109  0.92930343  0.46786324    -0.05100
C640        C  0.42581429  0.93300439  0.49857694    -0.23500
C641        C  0.39638103  0.91760366  0.51566391     0.12800
C642        C  0.36515383  0.89873125  0.50192033    -0.12700
N643        N  0.39093914  0.90454248  0.42304287     0.64500
H644        H  0.44569861  0.94078156  0.45453236     0.12400
N645        N  0.39761707  0.92199587  0.54689238     0.61200
H646        H  0.34278266  0.88810247  0.51523607     0.08500
O647        O  0.29478451  0.89267141  0.37488779    -0.40300
O648        O  0.26083426  0.89851356  0.40448525    -0.39500
O649        O  0.30096278  0.82052998  0.51541461    -0.39500
O650        O  0.33219426  0.81186103  0.48464114    -0.37200
O651        O  0.39768638  0.94743452  0.55759281    -0.38100
O652        O  0.39314319  0.89810020  0.56359992    -0.34200
O653        O  0.39848776  0.92890209  0.40583780    -0.35600
O654        O  0.38796988  0.87751333  0.41304010    -0.39900
C655        C  0.10517941  0.63139468  0.49938699    -0.13600
C656        C  0.10282663  0.63071995  0.46856217     0.16700
C657        C  0.08288859  0.59980867  0.45414858     0.03000
C658        C  0.06500933  0.57037164  0.47072285    -0.12100
C659        C  0.06761220  0.57086701  0.50159180    -0.03200
C660        C  0.08800776  0.60184904  0.51595143     0.02300
C661        C  0.12257781  0.66247981  0.45204651     0.09100
N662        N  0.08239815  0.59751283  0.42274479     0.65500
H663        H  0.05007684  0.54676514  0.45928752     0.18400
N664        N  0.09085477  0.60399083  0.54731758     0.76000
H665        H  0.12054645  0.65503999  0.51064346     0.09900
C666        C  0.10727198  0.67802414  0.43651095     0.03600
C667        C  0.12720954  0.70920345  0.42282656    -0.05100
C668        C  0.16243282  0.72565161  0.42472847    -0.23500
C669        C  0.17758090  0.70926173  0.43954033     0.12800
C670        C  0.15759709  0.67814823  0.45309066    -0.12700
N671        N  0.07162940  0.66373069  0.43625876     0.64500
H672        H  0.11498054  0.72133499  0.41201952     0.12400
N673        N  0.21321028  0.72354207  0.44088037     0.61200
H674        H  0.16953208  0.66614292  0.46466316     0.08500
O675        O  0.07189479  0.61122141  0.56180316    -0.40300
O676        O  0.11658836  0.60615740  0.55959095    -0.39500
O677        O  0.10714699  0.59859933  0.40972025    -0.39500
O678        O  0.05507048  0.58714792  0.40897072    -0.37200
O679        O  0.22797602  0.73187387  0.46550577    -0.38100
O680        O  0.22851153  0.72099686  0.41889352    -0.34200
O681        O  0.05742156  0.66828029  0.45807925    -0.35600
O682        O  0.05566771  0.65320773  0.41234334    -0.39900
C683        C  0.00367890  0.20908186  0.25353591    -0.13600
C684        C  0.00359402  0.21496098  0.28385565     0.16700
C685        C  0.97374980  0.20970355  0.29715293     0.03000
C686        C  0.94442453  0.19789706  0.28024940    -0.12100
C687        C  0.94417835  0.19109908  0.25000983    -0.03200
C688        C  0.97443078  0.19738766  0.23655442     0.02300
C689        C  0.03520541  0.22716276  0.30086299     0.09100
N690        N  0.97251675  0.21500024  0.32801028     0.65500
H691        H  0.92154329  0.19319647  0.29107280     0.18400
N692        N  0.97629987  0.19341478  0.20552852     0.76000
H693        H  0.02675573  0.21408322  0.24289976     0.09900
C694        C  0.05212324  0.20861151  0.30126610     0.03600
C695        C  0.08398865  0.22236407  0.31396476    -0.05100
C696        C  0.09957774  0.25447147  0.32687904    -0.23500
C697        C  0.08202356  0.27256021  0.32763987     0.12800
C698        C  0.05009442  0.25882795  0.31455764    -0.12700
N699        N  0.03704293  0.17552811  0.28904376     0.64500
H700        H  0.09654098  0.20763691  0.31377065     0.12400
N701        N  0.09702934  0.30566751  0.33979399     0.61200
H702        H  0.03751505  0.27351668  0.31401883     0.08500
O703        O  0.98072684  0.17007728  0.19592710    -0.40300
O704        O  0.97976262  0.21659799  0.18835262    -0.39500
O705        O  0.97015030  0.23983746  0.33685078    -0.39500
O706        O  0.96810544  0.19209642  0.34592539    -0.37200
O707        O  0.11619139  0.33059514  0.32411793    -0.38100
O708        O  0.08709283  0.31037857  0.36425957    -0.34200
O709        O  0.04899908  0.17027713  0.26599228    -0.35600
O710        O  0.01573330  0.15091577  0.30387006    -0.39900
C711        C  0.75161485  0.95227190  0.30424912    -0.13600
C712        C  0.78647473  0.97043751  0.29982057     0.16700
C713        C  0.80633562  0.95670759  0.30981194     0.03000
C714        C  0.79080493  0.92447562  0.32224405    -0.12100
C715        C  0.75588772  0.90615355  0.32624617    -0.03200
C716        C  0.73628945  0.92053610  0.31752969     0.02300
C717        C  0.80105765  0.00328607  0.28429747     0.09100
N718        N  0.84222847  0.97568248  0.30881559     0.68200
H719        H  0.80620855  0.91399369  0.32949617     0.18400
N720        N  0.70060938  0.90244026  0.32031521     0.76000
H721        H  0.73605635  0.96243927  0.29665734     0.09900
C722        C  0.82042213  0.00998521  0.25848017     0.03600
C723        C  0.83233161  0.04090970  0.24407726    -0.05100
C724        C  0.82417873  0.06503053  0.25403375    -0.23500
C725        C  0.80449798  0.05801269  0.27972977     0.12800
C726        C  0.79362875  0.02764933  0.29469940    -0.12700
N727        N  0.82610365  0.98487078  0.24530569     0.64500
H728        H  0.84690659  0.04541847  0.22422264     0.12400
N729        N  0.79391971  0.08061051  0.29030956     0.61200
H730        H  0.77852177  0.02271265  0.31428525     0.08500
O731        O  0.68296564  0.88146578  0.30075685    -0.40300
O732        O  0.68668493  0.91149352  0.33927567    -0.39500
O733        O  0.85760773  0.00295265  0.32291835    -0.39500
O734        O  0.85852379  0.96247283  0.29859762    -0.37200
O735        O  0.76554357  0.07626535  0.28274610    -0.38100
O736        O  0.80928311  0.09983963  0.31163914    -0.34200
O737        O  0.80150173  0.95819382  0.23556128    -0.35600
O738        O  0.85547582  0.99202591  0.23822462    -0.39900
C739        C  0.11441966  0.37978018  0.95089348    -0.13600
C740        C  0.11258006  0.40498376  0.93479736     0.16700
C741        C  0.12573481  0.41232757  0.90606011     0.03000
C742        C  0.13986484  0.39415520  0.89377284    -0.12100
C743        C  0.14154356  0.36866246  0.90973080    -0.03200
C744        C  0.12901039  0.36191069  0.93882488     0.02300
C745        C  0.09904148  0.42486603  0.94920433     0.09100
N746        N  0.12434662  0.43776320  0.88885197     0.65500
H747        H  0.14926100  0.39988390  0.87147361     0.18400
N748        N  0.13244135  0.33830100  0.95702051     0.76000
H749        H  0.10544414  0.37469119  0.97334708     0.09900
C750        C  0.06610290  0.40941826  0.96034519     0.03600
C751        C  0.05484789  0.42855191  0.97560158    -0.05100
C752        C  0.07582686  0.46327521  0.97969655    -0.23500
C753        C  0.10908178  0.47861938  0.96889722     0.12800
C754        C  0.12023966  0.45939429  0.95372480    -0.12700
N755        N  0.04330927  0.37458682  0.95512023     0.64500
H756        H  0.02919129  0.41640247  0.98327471     0.12400
N757        N  0.13243318  0.51329810  0.97446127     0.61200
H758        H  0.14594309  0.47131277  0.94619174     0.08500
O759        O  0.10685083  0.31075638  0.96351693    -0.40300
O760        O  0.15967258  0.34736069  0.97060184    -0.39500
O761        O  0.15087457  0.46520804  0.88417386    -0.39500
O762        O  0.09820948  0.43058833  0.87418527    -0.37200
O763        O  0.14555757  0.53326722  0.95315803    -0.38100
O764        O  0.14458707  0.52239124  0.99998496    -0.34200
O765        O  0.03372870  0.35409788  0.97630176    -0.35600
O766        O  0.02894232  0.36526645  0.93039745    -0.39900
C767        C  0.92177628  0.59099743  0.13277150    -0.13600
C768        C  0.90392642  0.55569687  0.13364923     0.16700
C769        C  0.87368435  0.53960232  0.14982738     0.03000
C770        C  0.86231875  0.55877148  0.16490587    -0.12100
C771        C  0.88003614  0.59402257  0.16372513    -0.03200
C772        C  0.91002473  0.61011982  0.14731223     0.02300
C773        C  0.91876165  0.53636357  0.11988880     0.09100
N774        N  0.85373141  0.50377072  0.15059713     0.65500
H775        H  0.83908340  0.54594486  0.17709005     0.18400
N776        N  0.92992808  0.64593405  0.14655258     0.76000
H777        H  0.94563134  0.60394169  0.12158118     0.09900
C778        C  0.93144321  0.54266017  0.09084358     0.03600
C779        C  0.94684156  0.52517728  0.07943911    -0.05100
C780        C  0.94954933  0.50086352  0.09625337    -0.23500
C781        C  0.93752966  0.49510319  0.12552747     0.12800
C782        C  0.92248338  0.51282232  0.13696478    -0.12700
N783        N  0.92772185  0.56575347  0.07216701     0.64500
H784        H  0.95558962  0.52979566  0.05692198     0.12400
N785        N  0.94184125  0.47256853  0.14452283     0.61200
H786        H  0.91456950  0.50882873  0.15970290     0.08500
O787        O  0.93045599  0.66162168  0.12351446    -0.40300
O788        O  0.95090157  0.66117546  0.16687621    -0.39500
O789        O  0.84971768  0.48841101  0.17464827    -0.39500
O790        O  0.83536558  0.48835017  0.12880784    -0.37200
O791        O  0.97056665  0.48114573  0.15484769    -0.38100
O792        O  0.91645635  0.44751874  0.15530165    -0.34200
O793        O  0.95338584  0.59250036  0.06416956    -0.35600
O794        O  0.90007669  0.55648985  0.05927123    -0.39900
C795        C  0.90627042  0.34380584  0.11389186    -0.13600
C796        C  0.92845626  0.33121629  0.11628508     0.16700
C797        C  0.96038104  0.34901484  0.10331953     0.03000
C798        C  0.97035968  0.38000730  0.08962094    -0.12100
C799        C  0.94866722  0.39341939  0.08833210    -0.03200
C800        C  0.91578767  0.37427247  0.09954505     0.02300
C801        C  0.91728106  0.29914097  0.13208408     0.09100
N802        N  0.98343022  0.33663741  0.10506597     0.65500
H803        H  0.99556065  0.39416363  0.08103568     0.18400
N804        N  0.89125172  0.38452801  0.09519576     0.76000
H805        H  0.88119147  0.32952035  0.12273011     0.09900
C806        C  0.91043661  0.29668019  0.16243694     0.03600
C807        C  0.89649558  0.26544815  0.17646492    -0.05100
C808        C  0.88935564  0.23622868  0.16075804    -0.23500
C809        C  0.89641134  0.23878102  0.13026975     0.12800
C810        C  0.91042074  0.27016007  0.11626129    -0.12700
N811        N  0.91815468  0.32591256  0.17939839     0.64500
H812        H  0.89183080  0.26421989  0.19989450     0.12400
N813        N  0.88777477  0.20959673  0.11288816     0.61200
H814        H  0.91485878  0.27173170  0.09277893     0.08500
O815        O  0.87571877  0.38714034  0.11696904    -0.40300
O816        O  0.88091122  0.38496532  0.06947605    -0.39500
O817        O  0.98834939  0.32331602  0.08274368    -0.39500
O818        O  0.00241416  0.34355010  0.12724201    -0.37200
O819        O  0.85793725  0.19156643  0.10403861    -0.38100
O820        O  0.91064721  0.20508913  0.10238512    -0.34200
O821        O  0.89474222  0.32996105  0.18926067    -0.35600
O822        O  0.94786595  0.34494712  0.18809422    -0.39900
C823        C  0.54855969  0.87262508  0.97650598    -0.13600
C824        C  0.58171836  0.89594661  0.96914311     0.16700
C825        C  0.59497390  0.92999764  0.97667242     0.03000
C826        C  0.57452923  0.94042349  0.99059596    -0.12100
C827        C  0.54077392  0.91735896  0.99667337    -0.03200
C828        C  0.52806653  0.88303538  0.99030056     0.02300
C829        C  0.60122791  0.88436452  0.95200658     0.09100
N830        N  0.62836646  0.95452363  0.96860274     0.65500
H831        H  0.58457517  0.96687354  0.99526329     0.18400
N832        N  0.49475660  0.85838916  0.99844003     0.76000
H833        H  0.53847635  0.84631504  0.97118829     0.09900
C834        C  0.62530441  0.87820559  0.96542491     0.03600
C835        C  0.64182933  0.86534716  0.94865092    -0.05100
C836        C  0.63446967  0.85804034  0.91853404    -0.23500
C837        C  0.61058177  0.86474162  0.90508439     0.12800
C838        C  0.59421122  0.87780377  0.92191285    -0.12700
N839        N  0.63210512  0.88337578  0.99629515     0.64500
H840        H  0.65984416  0.86020241  0.95952601     0.12400
N841        N  0.60297574  0.85896903  0.87438181     0.61200
H842        H  0.57571622  0.88260683  0.91151988     0.08500
O843        O  0.48941047  0.84598504  0.02399598    -0.40300
O844        O  0.47249224  0.84450441  0.97880969    -0.39500
O845        O  0.63372729  0.96765679  0.94334246    -0.39500
O846        O  0.65076780  0.96766681  0.98822117    -0.37200
O847        O  0.57725423  0.83235229  0.86609160    -0.38100
O848        O  0.61766056  0.88298643  0.85649322    -0.34200
O849        O  0.61651394  0.85908259  0.01374727    -0.35600
O850        O  0.65830928  0.90918545  0.00511176    -0.39900
C851        C  0.44741742  0.10118389  0.16566754    -0.13600
C852        C  0.43985773  0.09039035  0.13636396     0.16700
C853        C  0.41263958  0.09095192  0.12235148     0.03000
C854        C  0.39391613  0.10269335  0.13759806    -0.12100
C855        C  0.40179229  0.11403175  0.16688033    -0.03200
C856        C  0.42887710  0.11292762  0.18093909     0.02300
C857        C  0.45960132  0.07684265  0.12172184     0.09100
N858        N  0.40417204  0.08040420  0.09242973     0.65500
H859        H  0.37338160  0.10324726  0.12631162     0.18400
N860        N  0.43751838  0.12275131  0.21100283     0.76000
H861        H  0.46746832  0.09981752  0.17705622     0.09900
C862        C  0.49493886  0.09553719  0.12078384     0.03600
C863        C  0.51315062  0.08076308  0.11012134    -0.05100
C864        C  0.49689714  0.04738959  0.09997931    -0.23500
C865        C  0.46141576  0.02877660  0.10052361     0.12800
C866        C  0.44319519  0.04358313  0.11137136    -0.12700
N867        N  0.51275692  0.12979250  0.13027528     0.64500
H868        H  0.54018100  0.09574990  0.10946470     0.12400
N869        N  0.44348568  0.99424781  0.09184686     0.61200
H870        H  0.41619680  0.02856941  0.11281830     0.08500
O871        O  0.46291432  0.15073433  0.21698331    -0.40300
O872        O  0.42365331  0.10127210  0.23115117    -0.39500
O873        O  0.37772078  0.05322739  0.08664188    -0.39500
O874        O  0.41981096  0.10072028  0.07190505    -0.37200
O875        O  0.43883669  0.97172353  0.11029077    -0.38100
O876        O  0.42759495  0.98610760  0.06774601    -0.34200
O877        O  0.53102138  0.13763588  0.15302540    -0.35600
O878        O  0.51521090  0.15261387  0.11315079    -0.39900
C879        C  0.65444349  0.08946832  0.12593745    -0.13600
C880        C  0.67079717  0.07096787  0.12116484     0.16700
C881        C  0.65442670  0.04098931  0.10470785     0.03000
C882        C  0.62207806  0.03004594  0.09347968    -0.12100
C883        C  0.60504263  0.04799207  0.09899098    -0.03200
C884        C  0.62195817  0.07834536  0.11523473     0.02300
C885        C  0.70378656  0.08244446  0.13560848     0.09100
N886        N  0.66920646  0.02013171  0.10102691     0.65500
H887        H  0.60977294  0.00656614  0.08144742     0.18400
N888        N  0.60666393  0.09826259  0.12136225     0.76000
H889        H  0.66682944  0.11252885  0.13859903     0.09900
C890        C  0.73366659  0.09347804  0.11952343     0.03600
C891        C  0.76436058  0.10557752  0.13453356    -0.05100
C892        C  0.76593384  0.10791494  0.16541060    -0.23500
C893        C  0.73589834  0.09644498  0.18137127     0.12800
C894        C  0.70527182  0.08373297  0.16643726    -0.12700
N895        N  0.73364558  0.09490508  0.08807700     0.64500
H896        H  0.78720723  0.11471344  0.12195380     0.12400
N897        N  0.73589292  0.09663415  0.21282348     0.61200
H898        H  0.68246460  0.07507502  0.17899950     0.08500
O899        O  0.59317981  0.09572606  0.14608957    -0.40300
O900        O  0.61256970  0.12273197  0.10482720    -0.39500
O901        O  0.66910741  0.00228531  0.12227011    -0.39500
O902        O  0.67570764  0.01423986  0.07547775    -0.37200
O903        O  0.73400195  0.11967360  0.22634751    -0.38100
O904        O  0.73089638  0.07062937  0.22659997    -0.34200
O905        O  0.73118114  0.11821367  0.07556746    -0.35600
O906        O  0.74338317  0.07798700  0.07340749    -0.39900
C907        C  0.99185972  0.73137122  0.77477731    -0.13600
C908        C  0.99419156  0.73059561  0.80559557     0.16700
C909        C  0.96455263  0.71688551  0.82241228     0.03000
C910        C  0.93341350  0.70463730  0.80833735    -0.12100
C911        C  0.93114078  0.70554457  0.77755276    -0.03200
C912        C  0.96071238  0.71923525  0.76069039     0.02300
C913        C  0.02791087  0.74697105  0.81972406     0.09100
N914        N  0.96562662  0.71476658  0.85376977     0.65500
H915        H  0.91088360  0.69413463  0.82150652     0.18400
N916        N  0.95985505  0.72393513  0.72962139     0.76000
H917        H  0.01444485  0.74302834  0.76169765     0.09900
C918        C  0.05210182  0.73788199  0.81222040     0.03600
C919        C  0.08450073  0.75559068  0.82416007    -0.05100
C920        C  0.09345546  0.78225819  0.84402643    -0.23500
C921        C  0.06912898  0.79133688  0.85155778     0.12800
C922        C  0.03682073  0.77382632  0.83928668    -0.12700
N923        N  0.04380025  0.70993309  0.79326528     0.64500
H924        H  0.10242874  0.74774362  0.81841111     0.12400
N925        N  0.07696418  0.81883485  0.87093881     0.61200
H926        H  0.01883685  0.78173947  0.84458242     0.08500
O927        O  0.97164396  0.71094060  0.71230062    -0.40300
O928        O  0.95356386  0.74613715  0.72010007    -0.39500
O929        O  0.95880700  0.73319139  0.86958637    -0.39500
O930        O  0.96722451  0.69054859  0.86537027    -0.37200
O931        O  0.08843432  0.84803101  0.86052366    -0.38100
O932        O  0.06695631  0.81313240  0.89724917    -0.34200
O933        O  0.05616421  0.71491659  0.76776787    -0.35600
O934        O  0.02939321  0.68058897  0.80377482    -0.39900
C935        C  0.22717200  0.96296466  0.82641304    -0.13600
C936        C  0.24561556  0.96644963  0.80080809     0.16700
C937        C  0.25230562  0.94053149  0.79314175     0.03000
C938        C  0.23990361  0.91158273  0.81066326    -0.12100
C939        C  0.22075303  0.90772864  0.83600028    -0.03200
C940        C  0.21457744  0.93404051  0.84381983     0.02300
C941        C  0.25880767  0.99812221  0.78354389     0.09100
N942        N  0.27095373  0.94284075  0.76728303     0.65500
H943        H  0.24514184  0.89189566  0.80418069     0.18400
N944        N  0.19526160  0.93181543  0.86916240     0.76000
H945        H  0.22267435  0.98307172  0.83315699     0.09900
C946        C  0.23750809  0.01067363  0.77486302     0.03600
C947        C  0.25115799  0.04310902  0.76331949    -0.05100
C948        C  0.28584328  0.06336116  0.75933590    -0.23500
C949        C  0.30711446  0.05029758  0.76659036     0.12800
C950        C  0.29349013  0.01800850  0.77880626    -0.12700
N951        N  0.20187526  0.99062240  0.77746561     0.64500
H952        H  0.23436948  0.05246168  0.75718078     0.12400
N953        N  0.34271750  0.07040196  0.76391748     0.61200
H954        H  0.31034419  0.00916034  0.78602577     0.08500
O955        O  0.16436076  0.92185097  0.86632668    -0.40300
O956        O  0.21000708  0.94537224  0.89298668    -0.39500
O957        O  0.30015105  0.94692323  0.76975226    -0.39500
O958        O  0.25619007  0.93465383  0.74265863    -0.37200
O959        O  0.35940695  0.09095980  0.78407530    -0.38100
O960        O  0.35781740  0.06323622  0.74458017    -0.34200
O961        O  0.18631933  0.99967451  0.79467959    -0.35600
O962        O  0.18562687  0.96774281  0.75883659    -0.39900
C963        C  0.10387148  0.69026109  0.95730005    -0.13600
C964        C  0.12075646  0.67179725  0.95538277     0.16700
C965        C  0.15169741  0.68588167  0.94044787     0.03000
C966        C  0.16447974  0.71720035  0.92683824    -0.12100
C967        C  0.14734480  0.73536381  0.92828265    -0.03200
C968        C  0.11698739  0.72192300  0.94400932     0.02300
C969        C  0.10404158  0.63645977  0.96582409     0.09100
N970        N  0.17048237  0.66866397  0.93893449     0.65500
H971        H  0.18798047  0.72739297  0.91510506     0.18400
N972        N  0.09782891  0.73877389  0.94460012     0.76000
H973        H  0.07965579  0.67940015  0.96785673     0.09900
C974        C  0.09189761  0.62740286  0.99479614     0.03600
C975        C  0.07605201  0.59355797  0.00338175    -0.05100
C976        C  0.07222329  0.56841667  0.98350841    -0.23500
C977        C  0.08299931  0.57740769  0.95414413     0.12800
C978        C  0.09871699  0.61112390  0.94565226    -0.12700
N979        N  0.09670511  0.65236593  0.01607137     0.64500
H980        H  0.06797606  0.58713256  0.02597247     0.12400
N981        N  0.07687872  0.55250854  0.93230921     0.61200
H982        H  0.10623690  0.61748813  0.92294373     0.08500
O983        O  0.09707772  0.75356570  0.96775208    -0.40300
O984        O  0.07790362  0.73464384  0.92369878    -0.39500
O985        O  0.17360731  0.65732432  0.91456219    -0.39500
O986        O  0.18903790  0.67060705  0.96031038    -0.37200
O987        O  0.10126567  0.55278442  0.91933563    -0.38100
O988        O  0.04760050  0.53471206  0.92213001    -0.34200
O989        O  0.07183191  0.65456427  0.02490084    -0.35600
O990        O  0.12430856  0.66792312  0.02966184    -0.39900
C991        C  0.39666352  0.89830467  0.94835022    -0.13600
C992        C  0.37062320  0.89677133  0.96548478     0.16700
C993        C  0.37712670  0.90744628  0.99511359     0.03000
C994        C  0.40947758  0.91985053  0.00685597    -0.12100
C995        C  0.43544619  0.92082571  0.98986805    -0.03200
C996        C  0.42880038  0.91008342  0.96020720     0.02300
C997        C  0.33684450  0.88331129  0.95194749     0.09100
N998        N  0.35072860  0.90369027  0.01410713     0.65500
H999        H  0.41391849  0.92740207  0.02976262     0.18400
N1000       N  0.45463491  0.91206327  0.94145912     0.76000
H1001       H  0.39202033  0.89041571  0.92552191     0.09900
C1002       C  0.32123724  0.90307154  0.94890333     0.03600
C1003       C  0.28927570  0.88918605  0.93597428    -0.05100
C1004       C  0.27322974  0.85640312  0.92456994    -0.23500
C1005       C  0.28910553  0.83687078  0.92717962     0.12800
C1006       C  0.32048922  0.85030687  0.94103619    -0.12700
N1007       N  0.33857558  0.93794880  0.95657533     0.64500
H1008       H  0.27771253  0.90469740  0.93341114     0.12400
N1009       N  0.27328138  0.80303641  0.91664348     0.61200
H1010       H  0.33224040  0.83492408  0.94321691     0.08500
O1011       O  0.47191678  0.93835188  0.92657694    -0.40300
O1012       O  0.45562784  0.88570274  0.93539897    -0.39500
O1013       O  0.32973643  0.87478604  0.02327898    -0.39500
O1014       O  0.35272219  0.92920077  0.02661412    -0.37200
O1015       O  0.28300465  0.79655827  0.89284793    -0.38100
O1016       O  0.25474525  0.77930306  0.93369121    -0.34200
O1017       O  0.36349683  0.95823726  0.94149154    -0.35600
O1018       O  0.32513094  0.94925525  0.97392016    -0.39900
C1019       C  0.39655882  0.42819670  0.45717636    -0.13600
C1020       C  0.36916053  0.42149699  0.47512619     0.16700
C1021       C  0.37427166  0.42811921  0.50553089     0.03000
C1022       C  0.40652365  0.44142795  0.51745412    -0.12100
C1023       C  0.43407676  0.44786295  0.49969090    -0.03200
C1024       C  0.42890883  0.44134748  0.46916672     0.02300
C1025       C  0.33524921  0.40689314  0.46196212     0.09100
N1026       N  0.34672995  0.41997834  0.52479792     0.65500
H1027       H  0.40982142  0.44590093  0.54097359     0.18400
N1028       N  0.45632160  0.44922197  0.44989054     0.76000
H1029       H  0.39281320  0.42339294  0.43372061     0.09900
C1030       C  0.31878703  0.42576477  0.45914882     0.03600
C1031       C  0.28602248  0.41053457  0.44804593    -0.05100
C1032       C  0.26922161  0.37666915  0.43914050    -0.23500
C1033       C  0.28610064  0.35801046  0.44141621     0.12800
C1034       C  0.31883101  0.37321571  0.45286839    -0.12700
N1035       N  0.33539523  0.46072293  0.46643221     0.64500
H1036       H  0.27396791  0.42555824  0.44583140     0.12400
N1037       N  0.26999238  0.32329788  0.43345027     0.61200
H1038       H  0.33130737  0.35854391  0.45510652     0.08500
O1039       O  0.47119707  0.47764815  0.43763181    -0.40300
O1040       O  0.46133520  0.42605291  0.44087221    -0.39500
O1041       O  0.32800147  0.38981983  0.53243877    -0.39500
O1042       O  0.34543013  0.44310359  0.53874615    -0.37200
O1043       O  0.27493496  0.31505969  0.40825247    -0.38100
O1044       O  0.25696074  0.30118955  0.45322843    -0.34200
O1045       O  0.35423744  0.48191462  0.44762400    -0.35600
O1046       O  0.32520747  0.47052674  0.48798095    -0.39900
C1047       C  0.48538145  0.34735104  0.60044228    -0.13600
C1048       C  0.45439093  0.33615257  0.61439211     0.16700
C1049       C  0.44078949  0.35775585  0.61566951     0.03000
C1050       C  0.45737471  0.38919815  0.60183031    -0.12100
C1051       C  0.48727829  0.39946235  0.58622639    -0.03200
C1052       C  0.50164418  0.37845237  0.58609966     0.02300
C1053       C  0.43668421  0.30166395  0.62691287     0.09100
N1054       N  0.40936509  0.34750865  0.62965715     0.65500
H1055       H  0.44605822  0.40503973  0.60227318     0.18400
N1056       N  0.53330595  0.38872611  0.57254850     0.76000
H1057       H  0.49683116  0.33163381  0.60034156     0.09900
C1058       C  0.43052842  0.27375929  0.60944420     0.03600
C1059       C  0.41683562  0.24192835  0.62210112    -0.05100
C1060       C  0.40853184  0.23681429  0.65209807    -0.23500
C1061       C  0.41374381  0.26449568  0.66953015     0.12800
C1062       C  0.42787351  0.29666064  0.65686233    -0.12700
N1063       N  0.43779203  0.27727003  0.57863379     0.64500
H1064       H  0.41252141  0.22098050  0.60819484     0.12400
N1065       N  0.40704253  0.26086941  0.70040809     0.61200
H1066       H  0.43314327  0.31791998  0.67069850     0.08500
O1067       O  0.55841613  0.39573160  0.58865593    -0.40300
O1068       O  0.53425540  0.38263211  0.54559078    -0.39500
O1069       O  0.40871645  0.36035145  0.65403294    -0.39500
O1070       O  0.38245193  0.33053075  0.61538052    -0.37200
O1071       O  0.42917490  0.26264956  0.71808823    -0.38100
O1072       O  0.38192061  0.26195335  0.71021931    -0.34200
O1073       O  0.46062899  0.27222596  0.56887811    -0.35600
O1074       O  0.41773386  0.27943811  0.56085023    -0.39900
C1075       C  0.73745292  0.58504155  0.60724562    -0.13600
C1076       C  0.70946903  0.57484340  0.62539364     0.16700
C1077       C  0.71404024  0.57889169  0.65616342     0.03000
C1078       C  0.74644321  0.59279087  0.66816283    -0.12100
C1079       C  0.77431002  0.60163376  0.65002854    -0.03200
C1080       C  0.76964611  0.59820182  0.61922406     0.02300
C1081       C  0.67580205  0.55815037  0.61151576     0.09100
N1082       N  0.68595846  0.56641689  0.67558789     0.65500
H1083       H  0.74953923  0.59468557  0.69187162     0.18400
N1084       N  0.79735493  0.60827134  0.59973357     0.76000
H1085       H  0.73417668  0.58227176  0.58357099     0.09900
C1086       C  0.65479352  0.57242763  0.61185664     0.03600
C1087       C  0.62369621  0.55605168  0.59735860    -0.05100
C1088       C  0.61350219  0.52608529  0.58155997    -0.23500
C1089       C  0.63477637  0.51202405  0.58115229     0.12800
C1090       C  0.66540091  0.52792338  0.59634872    -0.12700
N1091       N  0.66550275  0.60445417  0.62517356     0.64500
H1092       H  0.60796950  0.56750905  0.59758560     0.12400
N1093       N  0.62543524  0.48119571  0.56619195     0.61200
H1094       H  0.68144753  0.51682054  0.59598497     0.08500
O1095       O  0.81413069  0.63862722  0.59193276    -0.40300
O1096       O  0.80048687  0.58620738  0.58576058    -0.39500
O1097       O  0.66796556  0.53511877  0.67928430    -0.39500
O1098       O  0.68347709  0.58622677  0.69334304    -0.37200
O1099       O  0.62021188  0.45576113  0.58102461    -0.38100
O1100       O  0.63083683  0.48172237  0.53892703    -0.34200
O1101       O  0.68615940  0.63078608  0.61179656    -0.35600
O1102       O  0.64929162  0.60671750  0.64656860    -0.39900
C1103       C  0.57390726  0.68121664  0.44843478    -0.13600
C1104       C  0.59435862  0.66646850  0.44903657     0.16700
C1105       C  0.62626905  0.68360981  0.43577469     0.03000
C1106       C  0.63780895  0.71571554  0.42383668    -0.12100
C1107       C  0.61827226  0.73153632  0.42523846    -0.03200
C1108       C  0.58564194  0.71354166  0.43722102     0.02300
C1109       C  0.58215677  0.63381943  0.46449121     0.09100
N1110       N  0.64805374  0.66965061  0.43564352     0.65500
H1111       H  0.66281590  0.72889578  0.41481353     0.18400
N1112       N  0.56401273  0.72764363  0.43853424     0.76000
H1113       H  0.54881068  0.66780617  0.45722890     0.09900
C1114       C  0.56962118  0.62928688  0.49345084     0.03600
C1115       C  0.55760633  0.59831342  0.50742176    -0.05100
C1116       C  0.55792850  0.57119883  0.49337493    -0.23500
C1117       C  0.57012929  0.57551605  0.46422558     0.12800
C1118       C  0.58190647  0.60659671  0.45004118    -0.12700
N1119       N  0.56963617  0.65617421  0.50941383     0.64500
H1120       H  0.54851993  0.59582067  0.52971573     0.12400
N1121       N  0.57015472  0.54858298  0.44842514     0.61200
H1122       H  0.59041704  0.60927753  0.42755703     0.08500
O1123       O  0.55849239  0.73683856  0.46306679    -0.40300
O1124       O  0.54535511  0.72435800  0.41682125    -0.39500
O1125       O  0.65368062  0.65932245  0.41176026    -0.39500
O1126       O  0.66627984  0.67347933  0.45782993    -0.37200
O1127       O  0.54586434  0.53045844  0.43159563    -0.38100
O1128       O  0.59682751  0.54708058  0.44688170    -0.34200
O1129       O  0.54212486  0.65480615  0.51526606    -0.35600
O1130       O  0.59601290  0.67740456  0.52249507    -0.39900
C1131       C  0.32453035  0.41345658  0.92246866    -0.13600
C1132       C  0.32541653  0.40375381  0.95162840     0.16700
C1133       C  0.29650129  0.37613226  0.96345864     0.03000
C1134       C  0.26769060  0.35863605  0.94585283    -0.12100
C1135       C  0.26652873  0.36875730  0.91676009    -0.03200
C1136       C  0.29551799  0.39661994  0.90516589     0.02300
C1137       C  0.35654150  0.42403414  0.96917016     0.09100
N1138       N  0.29513655  0.36688012  0.99374040     0.65500
H1139       H  0.24569233  0.33770951  0.95545647     0.18400
N1140       N  0.29601611  0.40852033  0.87598137     0.76000
H1141       H  0.34652407  0.43467058  0.91313223     0.09900
C1142       C  0.37522945  0.41017639  0.98164563     0.03600
C1143       C  0.40571614  0.43122649  0.99613422    -0.05100
C1144       C  0.41880414  0.46626399  0.99751339    -0.23500
C1145       C  0.39957490  0.47979213  0.98547577     0.12800
C1146       C  0.36881158  0.45868822  0.97170207    -0.12700
N1147       N  0.36519240  0.37545830  0.97765104     0.64500
H1148       H  0.42020881  0.42028175  0.00467737     0.12400
N1149       N  0.41075114  0.51491449  0.98697065     0.61200
H1150       H  0.35455404  0.46957564  0.96246054     0.08500
O1151       O  0.30956058  0.40082672  0.85559322    -0.40300
O1152       O  0.28905624  0.43164110  0.87188710    -0.39500
O1153       O  0.29429836  0.38585154  0.01343371    -0.39500
O1154       O  0.28754204  0.33716640  0.00031977    -0.37200
O1155       O  0.41686276  0.53164038  0.96346241    -0.38100
O1156       O  0.40771917  0.52734621  0.01075066    -0.34200
O1157       O  0.36556910  0.36465460  0.95218639    -0.35600
O1158       O  0.36226405  0.35745649  0.99973949    -0.39900
C1159       C  0.62023455  0.69037785  0.96197373    -0.13600
C1160       C  0.58877746  0.66680454  0.95041027     0.16700
C1161       C  0.57671205  0.67536844  0.92515032     0.03000
C1162       C  0.59620286  0.70662491  0.91162662    -0.12100
C1163       C  0.62794148  0.73026846  0.92281834    -0.03200
C1164       C  0.63969189  0.72195435  0.94862112     0.02300
C1165       C  0.56798834  0.63414018  0.96574914     0.09100
N1166       N  0.54494252  0.65219240  0.91248517     0.65500
H1167       H  0.58637592  0.71217860  0.89201274     0.18400
N1168       N  0.67102566  0.74529584  0.96184462     0.76000
H1169       H  0.62945360  0.68449219  0.98179537     0.09900
C1170       C  0.57942860  0.61099796  0.97009448     0.03600
C1171       C  0.55921081  0.58063994  0.98494368    -0.05100
C1172       C  0.52731732  0.57258836  0.99544083    -0.23500
C1173       C  0.51626534  0.59621180  0.99182352     0.12800
C1174       C  0.53651713  0.62649464  0.97688291    -0.12700
N1175       N  0.61081000  0.61725382  0.95828091     0.64500
H1176       H  0.56798450  0.56275336  0.98732955     0.12400
N1177       N  0.48558614  0.59084143  0.00472496     0.61200
H1178       H  0.52804372  0.64462416  0.97465451     0.08500
O1179       O  0.69639658  0.74189908  0.95800641    -0.40300
O1180       O  0.67190552  0.76546362  0.98119159    -0.39500
O1181       O  0.52050733  0.65736778  0.91509076    -0.39500
O1182       O  0.54293749  0.63022767  0.89458722    -0.37200
O1183       O  0.48150971  0.58647799  0.03217625    -0.38100
O1184       O  0.46584344  0.59699056  0.99000375    -0.34200
O1185       O  0.63523636  0.62439657  0.97533993    -0.35600
O1186       O  0.61258237  0.61070407  0.93158810    -0.39900
C1187       C  0.64663972  0.56020090  0.10625295    -0.13600
C1188       C  0.65984728  0.54379666  0.12322161     0.16700
C1189       C  0.63997564  0.50906517  0.12835999     0.03000
C1190       C  0.60732104  0.49151638  0.11721268    -0.12100
C1191       C  0.59352092  0.50776770  0.10065562    -0.03200
C1192       C  0.61381128  0.54259431  0.09493110     0.02300
C1193       C  0.69310985  0.56347497  0.13769372     0.09100
N1194       N  0.65272867  0.49113230  0.14479600     0.65500
H1195       H  0.59280679  0.46484614  0.12160685     0.18400
N1196       N  0.60119054  0.56088223  0.07888582     0.76000
H1197       H  0.66142125  0.58701292  0.10266154     0.09900
C1198       C  0.72263925  0.58310660  0.12150705     0.03600
C1199       C  0.75356602  0.60073003  0.13618692    -0.05100
C1200       C  0.75565973  0.59898782  0.16696672    -0.23500
C1201       C  0.72583845  0.58017702  0.18319167     0.12800
C1202       C  0.69503438  0.56274294  0.16849535    -0.12700
N1203       N  0.72181011  0.58435968  0.09009957     0.64500
H1204       H  0.77608909  0.61506740  0.12337330     0.12400
N1205       N  0.72614345  0.57949135  0.21466548     0.61200
H1206       H  0.67240023  0.54876284  0.18125503     0.08500
O1207       O  0.60997755  0.56916648  0.05251489    -0.40300
O1208       O  0.58614114  0.57354623  0.09239346    -0.39500
O1209       O  0.64101970  0.47976350  0.16995946    -0.39500
O1210       O  0.67115747  0.48173815  0.13224164    -0.37200
O1211       O  0.72436447  0.60214572  0.22897211    -0.38100
O1212       O  0.72198241  0.55343124  0.22783580    -0.34200
O1213       O  0.72554957  0.61058269  0.07754261    -0.35600
O1214       O  0.72345557  0.56204697  0.07513317    -0.39900
C1215       C  0.47230722  0.36426899  0.14682764    -0.13600
C1216       C  0.45538402  0.33628483  0.12826333     0.16700
C1217       C  0.45379139  0.34160411  0.09777755     0.03000
C1218       C  0.46904560  0.37447927  0.08644145    -0.12100
C1219       C  0.48650300  0.40239901  0.10501612    -0.03200
C1220       C  0.48776245  0.39702421  0.13552846     0.02300
C1221       C  0.43705922  0.30206113  0.14156182     0.09100
N1222       N  0.43817627  0.31380898  0.07791281     0.65500
H1223       H  0.46846353  0.37812872  0.06292860     0.18400
N1224       N  0.50339405  0.42471903  0.15552408     0.76000
H1225       H  0.47279667  0.36070583  0.17036100     0.09900
C1226       C  0.45339962  0.28940826  0.15963940     0.03600
C1227       C  0.43471333  0.25841015  0.17404640    -0.05100
C1228       C  0.39971525  0.23931088  0.17057730    -0.23500
C1229       C  0.38340503  0.25216052  0.15261547     0.12800
C1230       C  0.40209419  0.28311368  0.13828220    -0.12700
N1231       N  0.48908982  0.30725494  0.16281539     0.64500
H1232       H  0.44775272  0.24890638  0.18746009     0.12400
N1233       N  0.34765091  0.23511786  0.15012434     0.61200
H1234       H  0.38904341  0.29298282  0.12534385     0.08500
O1235       O  0.53049883  0.43124389  0.16819633    -0.40300
O1236       O  0.48761704  0.43926182  0.16384410    -0.39500
O1237       O  0.41116115  0.30731762  0.06509384    -0.39500
O1238       O  0.45389392  0.29911857  0.06983008    -0.37200
O1239       O  0.33058821  0.23867349  0.17005432    -0.38100
O1240       O  0.33372458  0.22131987  0.12611058    -0.34200
O1241       O  0.50216659  0.32050309  0.18723096    -0.35600
O1242       O  0.50697971  0.30458044  0.14317215    -0.39900
loop_ 
_geom_bond_atom_site_label_1 
_geom_bond_atom_site_label_2 
_geom_bond_distance 
_geom_bond_site_symmetry_2 
_ccdc_geom_bond_type 
C1            N2   1.358       .  A
C1            N6   1.357       .  A
C1         C1191   1.491       .  S
N2            C3   1.361       .  A
C3            N4   1.366       .  A
C3            C9   1.476       .  S
N4            C5   1.362       .  A
C5            N6   1.355       .  A
C5         C1219   1.484       .  S
C7            N8   1.361       .  A
C7           N12   1.363   1_554  A
C7         C1144   1.492   1_554  S
N8            C9   1.358       .  A
C9           N10   1.361       .  A
N10          C11   1.360       .  A
C11          N12   1.362   1_554  A
C11        C1172   1.487   1_554  S
O13          V21   1.888       .  S
O13          C23   1.262       .  A
O14          V21   1.891       .  S
O14          C24   1.262       .  A
O15          V21   1.892       .  S
O15          C25   1.265       .  A
O16          V21   1.898       .  S
O16          C26   1.264       .  A
O17          V22   1.903       .  S
O17          C26   1.265       .  A
O18          V22   1.904       .  S
O18          C25   1.264       .  A
O19          V22   1.909       .  S
O19          C24   1.267       .  A
O20          V22   1.912       .  S
O20          C23   1.267       .  A
V21          V22   2.086       .  T
C23        C1023   1.482       .  S
C24        C1088   1.481       .  S
C25        C1116   1.485       .  S
C26        C1051   1.479       .  S
O27          V35   1.901       .  S
O27          C37   1.265       .  A
O28          V35   1.903       .  S
O28          C38   1.265       .  A
O29          V35   1.902       .  S
O29          C39   1.265       .  A
O30          V35   1.900       .  S
O30          C40   1.264       .  A
O31          V36   1.900       .  S
O31          C40   1.266       .  A
O32          V36   1.901       .  S
O32          C39   1.264       .  A
O33          V36   1.891       .  S
O33          C38   1.263       .  A
O34          V36   1.900       .  S
O34          C37   1.265       .  A
V35          V36   2.086       .  T
C37         C939   1.489       .  S
C38         C967   1.474       .  S
C39        C1004   1.478       .  S
C40         C920   1.486       .  S
C41          N42   1.358       .  A
C41          N46   1.359       .  A
C41         C883   1.494       .  S
N42          C43   1.358   1_545  A
C43          N44   1.358   1_565  A
C43          C51   1.468       .  S
N44          C45   1.359       .  A
C45          N46   1.361       .  A
C45         C864   1.487       .  S
C47          N48   1.359   1_554  A
C47          N52   1.360       .  A
C47         C995   1.484   1_554  S
N48          C49   1.358   1_556  A
C49          N50   1.356       .  A
C49         C827   1.474   1_554  S
N50          C51   1.357       .  A
C51          N52   1.359       .  A
C53          N54   1.358       .  A
C53          N58   1.360       .  A
C53         C799   1.483       .  S
N54          C55   1.357       .  A
C55          N56   1.363       .  A
C55         C780   1.490       .  S
N56          C57   1.364       .  A
C57          N58   1.360       .  A
C57          C63   1.478   1_655  S
C59          N60   1.356       .  A
C59          N64   1.360   1_556  A
C59         C976   1.480       .  S
N60          C61   1.356       .  A
C61          N62   1.363   1_556  A
C61         C752   1.487       .  S
N62          C63   1.364       .  A
C63          N64   1.361       .  A
O65          V73   1.901       .  S
O65          C75   1.266       .  A
O66          V73   1.900       .  S
O66          C76   1.264       .  A
O67          V73   1.905       .  S
O67          C77   1.266       .  A
O68          V73   1.905       .  S
O68          C78   1.265       .  A
O69          V74   1.897       .  S
O69          C78   1.264       .  A
O70          V74   1.895       .  S
O70          C77   1.264       .  A
O71          V74   1.900       .  S
O71          C76   1.266       .  A
O72          V74   1.899       .  S
O72          C75   1.264       .  A
V73          V74   2.085       .  T
C75         C724   1.488       .  S
C76         C808   1.483       .  S
C77         C687   1.484       .  S
C78         C892   1.481       .  S
C79          N80   1.361       .  A
C79          N84   1.355       .  A
C79         C668   1.490       .  S
N80          C81   1.362       .  A
C81          N82   1.361       .  A
C81          C89   1.474       .  S
N82          C83   1.360       .  A
C83          N84   1.358       .  A
C83         C631   1.494       .  S
C85          N86   1.357       .  A
C85          N90   1.359       .  A
C85         C575   1.483       .  S
N86          C87   1.355       .  A
C87          N88   1.361       .  A
C87         C603   1.481       .  S
N88          C89   1.363       .  A
C89          N90   1.361       .  A
C91          N92   1.357       .  A
C91          N96   1.360       .  A
C91        C1032   1.484       .  S
N92          C93   1.356       .  A
C93          N94   1.357       .  A
C93         C547   1.482       .  S
N94          C95   1.359       .  A
C95          N96   1.362       .  A
C95          C99   1.471       .  S
C97          N98   1.358       .  A
C97         N102   1.355       .  A
C97         C696   1.483       .  S
N98          C99   1.362       .  A
C99         N100   1.362       .  A
N100        C101   1.359       .  A
C101        N102   1.354       .  A
C101        C519   1.475       .  S
O103        V111   1.892       .  S
O103        C113   1.262       .  A
O104        V111   1.890       .  S
O104        C114   1.262       .  A
O105        V111   1.912       .  S
O105        C115   1.268       .  A
O106        V111   1.910       .  S
O106        C116   1.268       .  A
O107        V112   1.899       .  S
O107        C116   1.264       .  A
O108        V112   1.900       .  S
O108        C115   1.264       .  A
O109        V112   1.911       .  S
O109        C114   1.268       .  A
O110        V112   1.908       .  S
O110        C113   1.268       .  A
V111        V112   2.083       .  T
C113        C528   1.487       .  S
C114        C855   1.490       .  S
C115       C1228   1.489       .  S
C116        C612   1.494       .  S
O117        V125   1.895       .  S
O117        C127   1.263       .  A
O118        V125   1.898   1_455  S
O118        C128   1.265       .  A
O119        V125   1.903   1_455  S
O119        C129   1.265       .  A
O120        V125   1.901       .  S
O120        C130   1.264       .  A
O121        V126   1.892       .  S
O121        C130   1.261   1_455  A
O122        V126   1.893       .  S
O122        C129   1.265       .  A
O123        V126   1.905       .  S
O123        C128   1.266       .  A
O124        V126   1.905       .  S
O124        C127   1.267   1_455  A
V125        V126   2.086   1_655  T
C127        C500   1.486       .  S
C128        C659   1.482       .  S
C129        C556   1.485       .  S
C130        C463   1.464       .  S
C131        N132   1.355       .  A
C131        N136   1.355       .  A
C131       C1079   1.478       .  S
N132        C133   1.359       .  A
C133        N134   1.361       .  A
C133        C472   1.492       .  S
N134        C135   1.360       .  A
C135        N136   1.358       .  A
C135        C139   1.467       .  S
C137        N138   1.360       .  A
C137        N142   1.356       .  A
C137        C911   1.477       .  S
N138        C139   1.361       .  A
C139        N140   1.358       .  A
N140        C141   1.355       .  A
C141        N142   1.358       .  A
C141        C435   1.480       .  S
O143        V151   1.888       .  S
O143        C153   1.262       .  A
O144        V151   1.887       .  S
O144        C154   1.262       .  A
O145        V151   1.914       .  S
O145        C155   1.268       .  A
O146        V151   1.912       .  S
O146        C156   1.268       .  A
O147        V152   1.896       .  S
O147        C156   1.263       .  A
O148        V152   1.895       .  S
O148        C155   1.265       .  A
O149        V152   1.906       .  S
O149        C154   1.266       .  A
O150        V152   1.906       .  S
O150        C153   1.267       .  A
V151        V152   2.084       .  T
C153        C444   1.482       .  S
C154        C836   1.480       .  S
C155       C1163   1.494       .  S
C156        C407   1.491       .  S
C157        N158   1.357       .  A
C157        N162   1.354       .  A
C157        C491   1.488       .  S
N158        C159   1.361       .  A
C159        N160   1.363       .  A
C159        C167   1.472       .  S
N160        C161   1.362       .  A
C161        N162   1.356       .  A
C161        C388   1.494       .  S
C163        N164   1.366       .  A
C163        N168   1.362       .  A
C163        C416   1.495       .  S
N164        C165   1.364       .  A
C165        N166   1.357       .  A
C165        C360   1.489       .  S
N166        C167   1.357       .  A
C167        N168   1.359       .  A
O169        V177   1.897       .  S
O169        C179   1.264       .  A
O170        V177   1.902       .  S
O170        C180   1.265       .  A
O171        V177   1.904       .  S
O171        C181   1.266       .  A
O172        V177   1.900       .  S
O172        C182   1.265       .  A
O173        V178   1.897       .  S
O173        C182   1.263       .  A
O174        V178   1.895       .  S
O174        C181   1.263       .  A
O175        V178   1.907       .  S
O175        C180   1.267       .  A
O176        V178   1.904       .  S
O176        C179   1.267       .  A
V177        V178   2.083       .  T
C179        C332   1.487       .  S
C180        C771   1.487       .  S
C181       C1200   1.481       .  S
C182        C584   1.475       .  S
C183        N184   1.357       .  A
C183        N188   1.354       .  A
C183       C1107   1.486       .  S
N184        C185   1.360       .  A
C185        N186   1.364       .  A
C185        C191   1.474       .  S
N186        C187   1.363       .  A
C187        N188   1.357       .  A
C187        C304   1.488       .  S
C189        N190   1.362       .  A
C189        N194   1.355       .  A
C189        C715   1.478       .  S
N190        C191   1.362       .  A
C191        N192   1.362       .  A
N192        C193   1.358       .  A
C193        N194   1.355       .  A
C193        C323   1.486       .  S
O195        V203   1.904       .  S
O195        C205   1.265       .  A
O196        V203   1.899   1_565  S
O196        C206   1.264       .  A
O197        V203   1.902       .  S
O197        C207   1.265       .  A
O198        V203   1.901   1_565  S
O198        C208   1.265       .  A
O199        V204   1.899       .  S
O199        C208   1.265       .  A
O200        V204   1.890       .  S
O200        C207   1.263   1_565  A
O201        V204   1.895       .  S
O201        C206   1.263       .  A
O202        V204   1.897       .  S
O202        C205   1.264   1_565  A
V203        V204   2.086   1_545  T
C205        C379   1.480       .  S
C206        C640   1.474       .  S
C207        C267   1.481       .  S
C208        C295   1.485       .  S
C209        N210   1.359       .  A
C209        N214   1.354       .  A
C209       C1060   1.481       .  S
N210        C211   1.364       .  A
C211        N212   1.360       .  A
C211        C217   1.468       .  S
N212        C213   1.358       .  A
C213        N214   1.353       .  A
C213        C276   1.481       .  S
C215        N216   1.359       .  A
C215        N220   1.358       .  A
C215        C948   1.480       .  S
N216        C217   1.361       .  A
C217        N218   1.357       .  A
N218        C219   1.358       .  A
C219        N220   1.357       .  A
C219        C248   1.487       .  S
O221        V229   1.906       .  S
O221        C231   1.267       .  A
O222        V229   1.909       .  S
O222        C232   1.266       .  A
O223        V229   1.900       .  S
O223        C233   1.265       .  A
O224        V229   1.897       .  S
O224        C234   1.264       .  A
O225        V230   1.903       .  S
O225        C234   1.265       .  A
O226        V230   1.905       .  S
O226        C233   1.266       .  A
O227        V230   1.898       .  S
O227        C232   1.265       .  A
O228        V230   1.896       .  S
O228        C231   1.264       .  A
V229        V230   2.084       .  T
C231       C1135   1.490       .  S
C232        C351   1.490       .  S
C233        C743   1.490       .  S
C234        C239   1.481       .  S
C235        C236   1.401       .  A
C235        C240   1.399       .  A
C235        H245   1.083       .  S
C236        C241   1.479       .  S
C236        C237   1.409       .  A
C237        C238   1.401       .  A
C237        N242   1.430       .  S
C238        C239   1.406       .  A
C238        H243   1.083       .  S
C239        C240   1.412       .  A
C240        N244   1.428       .  S
C241        C246   1.408       .  A
C241        C250   1.400       .  A
N242        O257   1.262       .  A
N242        O258   1.262       .  A
N244        O255   1.262       .  A
N244        O256   1.262       .  A
C246        C247   1.400       .  A
C246        N251   1.430       .  S
C247        C248   1.407       .  A
C247        H252   1.082       .  S
C248        C249   1.416       .  A
C249        C250   1.400       .  A
C249        N253   1.429       .  S
C250        H254   1.083       .  S
N251        O261   1.262       .  A
N251        O262   1.262       .  A
N253        O259   1.262       .  A
N253        O260   1.262       .  A
C263        C264   1.403       .  A
C263        C268   1.400       .  A
C263        H273   1.082       .  S
C264        C269   1.480       .  S
C264        C265   1.407       .  A
C265        C266   1.397       .  A
C265        N270   1.429       .  S
C266        C267   1.406       .  A
C266        H271   1.082       .  S
C267        C268   1.413       .  A
C268        N272   1.429       .  S
C269        C274   1.407       .  A
C269        C278   1.404       .  A
N270        O285   1.262       .  A
N270        O286   1.262       .  A
N272        O283   1.262       .  A
N272        O284   1.262       .  A
C274        C275   1.395       .  A
C274        N279   1.430       .  S
C275        C276   1.406       .  A
C275        H280   1.082       .  S
C276        C277   1.413       .  A
C277        C278   1.402       .  A
C277        N281   1.429       .  S
C278        H282   1.082       .  S
N279        O289   1.262       .  A
N279        O290   1.262       .  A
N281        O287   1.262       .  A
N281        O288   1.261       .  A
C291        C292   1.400       .  A
C291        C296   1.400       .  A
C291        H301   1.084       .  S
C292        C297   1.479       .  S
C292        C293   1.409       .  A
C293        C294   1.401       .  A
C293        N298   1.430       .  S
C294        C295   1.406       .  A
C294        H299   1.083       .  S
C295        C296   1.415       .  A
C296        N300   1.428       .  S
C297        C302   1.406       .  A
C297        C306   1.403       .  A
N298        O313   1.262       .  A
N298        O314   1.262       .  A
N300        O311   1.262       .  A
N300        O312   1.262       .  A
C302        C303   1.398       .  A
C302        N307   1.430       .  S
C303        C304   1.408       .  A
C303        H308   1.078       .  S
C304        C305   1.413       .  A
C305        C306   1.404       .  A
C305        N309   1.428       .  S
C306        H310   1.081       .  S
N307        O317   1.262       .  A
N307        O318   1.262       .  A
N309        O315   1.261       .  A
N309        O316   1.262       .  A
C319        C320   1.404       .  A
C319        C324   1.403       .  A
C319        H329   1.081       .  S
C320        C325   1.485       .  S
C320        C321   1.409       .  A
C321        C322   1.398       .  A
C321        N326   1.430       .  S
C322        C323   1.407       .  A
C322        H327   1.082       .  S
C323        C324   1.414       .  A
C324        N328   1.429       .  S
C325        C330   1.408       .  A
C325        C334   1.402       .  A
N326        O341   1.262       .  A
N326        O342   1.262       .  A
N328        O339   1.262       .  A
N328        O340   1.262       .  A
C330        C331   1.402       .  A
C330        N335   1.429       .  S
C331        C332   1.407       .  A
C331        H336   1.081       .  S
C332        C333   1.415       .  A
C333        C334   1.400       .  A
C333        N337   1.429       .  S
C334        H338   1.081       .  S
N335        O345   1.262       .  A
N335        O346   1.262       .  A
N337        O343   1.262       .  A
N337        O344   1.262       .  A
C347        C348   1.403       .  A
C347        C352   1.407       .  A
C347        H357   1.083       .  S
C348        C353   1.483   1_455  S
C348        C349   1.405       .  A
C349        C350   1.399       .  A
C349        N354   1.428       .  S
C350        C351   1.407       .  A
C350        H355   1.082       .  S
C351        C352   1.416       .  A
C352        N356   1.429       .  S
C353        C358   1.406       .  A
C353        C362   1.401       .  A
N354        O369   1.262       .  A
N354        O370   1.262   1_455  A
N356        O367   1.262       .  A
N356        O368   1.262       .  A
C358        C359   1.402       .  A
C358        N363   1.429       .  S
C359        C360   1.408       .  A
C359        H364   1.083       .  S
C360        C361   1.415       .  A
C361        C362   1.406       .  A
C361        N365   1.432       .  S
C362        H366   1.083   1_655  S
N363        O373   1.262       .  A
N363        O374   1.262       .  A
N365        O371   1.262       .  A
N365        O372   1.262       .  A
C375        C376   1.400       .  A
C375        C380   1.400       .  A
C375        H385   1.083       .  S
C376        C381   1.481       .  S
C376        C377   1.411       .  A
C377        C378   1.403       .  A
C377        N382   1.430       .  S
C378        C379   1.404       .  A
C378        H383   1.083       .  S
C379        C380   1.412       .  A
C380        N384   1.429       .  S
C381        C386   1.405       .  A
C381        C390   1.403       .  A
N382        O397   1.262       .  A
N382        O398   1.262       .  A
N384        O395   1.262       .  A
N384        O396   1.262       .  A
C386        C387   1.398       .  A
C386        N391   1.430       .  S
C387        C388   1.411       .  A
C387        H392   1.081       .  S
C388        C389   1.416       .  A
C389        C390   1.404       .  A
C389        N393   1.428       .  S
C390        H394   1.082       .  S
N391        O401   1.262       .  A
N391        O402   1.262       .  A
N393        O399   1.262       .  A
N393        O400   1.262       .  A
C403        C404   1.402       .  A
C403        C408   1.400       .  A
C403        H413   1.083       .  S
C404        C409   1.485       .  S
C404        C405   1.409       .  A
C405        C406   1.405       .  A
C405        N410   1.430       .  S
C406        C407   1.410       .  A
C406        H411   1.083       .  S
C407        C408   1.413       .  A
C408        N412   1.428       .  S
C409        C414   1.410   1_565  A
C409        C418   1.400   1_565  A
N410        O425   1.262       .  A
N410        O426   1.262       .  A
N412        O423   1.262       .  A
N412        O424   1.262       .  A
C414        C415   1.406       .  A
C414        N419   1.430   1_545  S
C415        C416   1.410       .  A
C415        H420   1.082       .  S
C416        C417   1.415       .  A
C417        C418   1.401       .  A
C417        N421   1.428       .  S
C418        H422   1.083   1_545  S
N419        O429   1.262   1_565  A
N419        O430   1.262       .  A
N421        O427   1.262       .  A
N421        O428   1.262       .  A
C431        C432   1.404       .  A
C431        C436   1.403       .  A
C431        H441   1.081       .  S
C432        C437   1.482       .  S
C432        C433   1.409       .  A
C433        C434   1.395       .  A
C433        N438   1.429       .  S
C434        C435   1.403       .  A
C434        H439   1.082       .  S
C435        C436   1.414       .  A
C436        N440   1.429       .  S
C437        C442   1.409       .  A
C437        C446   1.401       .  A
N438        O453   1.262       .  A
N438        O454   1.262       .  A
N440        O451   1.262       .  A
N440        O452   1.262       .  A
C442        C443   1.403       .  A
C442        N447   1.428       .  S
C443        C444   1.406       .  A
C443        H448   1.081       .  S
C444        C445   1.414       .  A
C445        C446   1.396       .  A
C445        N449   1.430       .  S
C446        H450   1.082       .  S
N447        O457   1.262       .  A
N447        O458   1.262       .  A
N449        O455   1.262       .  A
N449        O456   1.262       .  A
C459        C460   1.404       .  A
C459        C464   1.399       .  A
C459        H469   1.081       .  S
C460        C465   1.477       .  S
C460        C461   1.407       .  A
C461        C462   1.398       .  A
C461        N466   1.429       .  S
C462        C463   1.401       .  A
C462        H467   1.080   1_655  S
C463        C464   1.406       .  A
C464        N468   1.429       .  S
C465        C470   1.403       .  A
C465        C474   1.401       .  A
N466        O481   1.262   1_655  A
N466        O482   1.262       .  A
N468        O479   1.261       .  A
N468        O480   1.262       .  A
C470        C471   1.396       .  A
C470        N475   1.429       .  S
C471        C472   1.410       .  A
C471        H476   1.077       .  S
C472        C473   1.419       .  A
C473        C474   1.404       .  A
C473        N477   1.429       .  S
C474        H478   1.081       .  S
N475        O485   1.262       .  A
N475        O486   1.262       .  A
N477        O483   1.262       .  A
N477        O484   1.261       .  A
C487        C488   1.405       .  A
C487        C492   1.404       .  A
C487        H497   1.081       .  S
C488        C493   1.486       .  S
C488        C489   1.408       .  A
C489        C490   1.397       .  A
C489        N494   1.430       .  S
C490        C491   1.407       .  A
C490        H495   1.081       .  S
C491        C492   1.415       .  A
C492        N496   1.429       .  S
C493        C498   1.408       .  A
C493        C502   1.403       .  A
N494        O509   1.262       .  A
N494        O510   1.262       .  A
N496        O507   1.262       .  A
N496        O508   1.262       .  A
C498        C499   1.402       .  A
C498        N503   1.429       .  S
C499        C500   1.406       .  A
C499        H504   1.082       .  S
C500        C501   1.415       .  A
C501        C502   1.400       .  A
C501        N505   1.430       .  S
C502        H506   1.082       .  S
N503        O513   1.262       .  A
N503        O514   1.262       .  A
N505        O511   1.262       .  A
N505        O512   1.262       .  A
C515        C516   1.404       .  A
C515        C520   1.398       .  A
C515        H525   1.080       .  S
C516        C521   1.491       .  S
C516        C517   1.415       .  A
C517        C518   1.404       .  A
C517        N522   1.430       .  S
C518        C519   1.401       .  A
C518        H523   1.082       .  S
C519        C520   1.409       .  A
C520        N524   1.429       .  S
C521        C526   1.414       .  A
C521        C530   1.403       .  A
N522        O537   1.262       .  A
N522        O538   1.262       .  A
N524        O535   1.262       .  A
N524        O536   1.262       .  A
C526        C527   1.402       .  A
C526        N531   1.430       .  S
C527        C528   1.405       .  A
C527        H532   1.081       .  S
C528        C529   1.416       .  A
C529        C530   1.400       .  A
C529        N533   1.429       .  S
C530        H534   1.080       .  S
N531        O541   1.262       .  A
N531        O542   1.262       .  A
N533        O539   1.262       .  A
N533        O540   1.262       .  A
C543        C544   1.401       .  A
C543        C548   1.397       .  A
C543        H553   1.082       .  S
C544        C549   1.483       .  S
C544        C545   1.409       .  A
C545        C546   1.403       .  A
C545        N550   1.429       .  S
C546        C547   1.406       .  A
C546        H551   1.082       .  S
C547        C548   1.413       .  A
C548        N552   1.429       .  S
C549        C554   1.408       .  A
C549        C558   1.403       .  A
N550        O565   1.262       .  A
N550        O566   1.262       .  A
N552        O563   1.262       .  A
N552        O564   1.262       .  A
C554        C555   1.396       .  A
C554        N559   1.430       .  S
C555        C556   1.406       .  A
C555        H560   1.082       .  S
C556        C557   1.415       .  A
C557        C558   1.404       .  A
C557        N561   1.429       .  S
C558        H562   1.082       .  S
N559        O569   1.262       .  A
N559        O570   1.262       .  A
N561        O567   1.262       .  A
N561        O568   1.262       .  A
C571        C572   1.405       .  A
C571        C576   1.405       .  A
C571        H581   1.081       .  S
C572        C577   1.485   1_455  S
C572        C573   1.409       .  A
C573        C574   1.395       .  A
C573        N578   1.430       .  S
C574        C575   1.404       .  A
C574        H579   1.082       .  S
C575        C576   1.414       .  A
C576        N580   1.429       .  S
C577        C582   1.410       .  A
C577        C586   1.405       .  A
N578        O593   1.262       .  A
N578        O594   1.262       .  A
N580        O591   1.262       .  A
N580        O592   1.262       .  A
C582        C583   1.401       .  A
C582        N587   1.429       .  S
C583        C584   1.404       .  A
C583        H588   1.082       .  S
C584        C585   1.409       .  A
C585        C586   1.398       .  A
C585        N589   1.430       .  S
C586        H590   1.082       .  S
N587        O597   1.262       .  A
N587        O598   1.262   1_655  A
N589        O595   1.262       .  A
N589        O596   1.262       .  A
C599        C600   1.404       .  A
C599        C604   1.405       .  A
C599        H609   1.082       .  S
C600        C605   1.488       .  S
C600        C601   1.410       .  A
C601        C602   1.402       .  A
C601        N606   1.429       .  S
C602        C603   1.404       .  A
C602        H607   1.082       .  S
C603        C604   1.411       .  A
C604        N608   1.431       .  S
C605        C610   1.408   1_565  A
C605        C614   1.402   1_565  A
N606        O621   1.262       .  A
N606        O622   1.262       .  A
N608        O619   1.261       .  A
N608        O620   1.262       .  A
C610        C611   1.403       .  A
C610        N615   1.428       .  S
C611        C612   1.407       .  A
C611        H616   1.081       .  S
C612        C613   1.418       .  A
C613        C614   1.403       .  A
C613        N617   1.429       .  S
C614        H618   1.082   1_545  S
N615        O625   1.262       .  A
N615        O626   1.262       .  A
N617        O623   1.262       .  A
N617        O624   1.262       .  A
C627        C628   1.404       .  A
C627        C632   1.403       .  A
C627        H637   1.078       .  S
C628        C633   1.486       .  S
C628        C629   1.407       .  A
C629        C630   1.397       .  A
C629        N634   1.430       .  S
C630        C631   1.409       .  A
C630        H635   1.072       .  S
C631        C632   1.416       .  A
C632        N636   1.428       .  S
C633        C638   1.412       .  A
C633        C642   1.404       .  A
N634        O649   1.262       .  A
N634        O650   1.262       .  A
N636        O647   1.261       .  A
N636        O648   1.262       .  A
C638        C639   1.401       .  A
C638        N643   1.429       .  S
C639        C640   1.403       .  A
C639        H644   1.081       .  S
C640        C641   1.410       .  A
C641        C642   1.398       .  A
C641        N645   1.430       .  S
C642        H646   1.080       .  S
N643        O653   1.262       .  A
N643        O654   1.262       .  A
N645        O651   1.262       .  A
N645        O652   1.262       .  A
C655        C656   1.403       .  A
C655        C660   1.401       .  A
C655        H665   1.083       .  S
C656        C661   1.482       .  S
C656        C657   1.408       .  A
C657        C658   1.402       .  A
C657        N662   1.429       .  S
C658        C659   1.405       .  A
C658        H663   1.083       .  S
C659        C660   1.413       .  A
C660        N664   1.429       .  S
C661        C666   1.410       .  A
C661        C670   1.398       .  A
N662        O677   1.262       .  A
N662        O678   1.262       .  A
N664        O675   1.262       .  A
N664        O676   1.262       .  A
C666        C667   1.404       .  A
C666        N671   1.429       .  S
C667        C668   1.407       .  A
C667        H672   1.082       .  S
C668        C669   1.418       .  A
C669        C670   1.399       .  A
C669        N673   1.430       .  S
C670        H674   1.083       .  S
N671        O681   1.262       .  A
N671        O682   1.262       .  A
N673        O679   1.262       .  A
N673        O680   1.262       .  A
C683        C684   1.404       .  A
C683        C688   1.400   1_455  A
C683        H693   1.082       .  S
C684        C689   1.483       .  S
C684        C685   1.407   1_455  A
C685        C686   1.401       .  A
C685        N690   1.429       .  S
C686        C687   1.407       .  A
C686        H691   1.082       .  S
C687        C688   1.412       .  A
C688        N692   1.429       .  S
C689        C694   1.407       .  A
C689        C698   1.405       .  A
N690        O705   1.262       .  A
N690        O706   1.262       .  A
N692        O703   1.262       .  A
N692        O704   1.262       .  A
C694        C695   1.395       .  A
C694        N699   1.429       .  S
C695        C696   1.405       .  A
C695        H700   1.083       .  S
C696        C697   1.414       .  A
C697        C698   1.405       .  A
C697        N701   1.429       .  S
C698        H702   1.082       .  S
N699        O709   1.262       .  A
N699        O710   1.262       .  A
N701        O707   1.262       .  A
N701        O708   1.262       .  A
C711        C712   1.405       .  A
C711        C716   1.400       .  A
C711        H721   1.083       .  S
C712        C717   1.487   1_565  S
C712        C713   1.412       .  A
C713        C714   1.402       .  A
C713        N718   1.432       .  S
C714        C715   1.405       .  A
C714        H719   1.083       .  S
C715        C716   1.408       .  A
C716        N720   1.428       .  S
C717        C722   1.413       .  A
C717        C726   1.402       .  A
N718        O733   1.262   1_565  A
N718        O734   1.262       .  A
N720        O731   1.262       .  A
N720        O732   1.261       .  A
C722        C723   1.402       .  A
C722        N727   1.432   1_545  S
C723        C724   1.407       .  A
C723        H728   1.082       .  S
C724        C725   1.415       .  A
C725        C726   1.399       .  A
C725        N729   1.428       .  S
C726        H730   1.083       .  S
N727        O737   1.262       .  A
N727        O738   1.262       .  A
N729        O735   1.262       .  A
N729        O736   1.262       .  A
C739        C740   1.403       .  A
C739        C744   1.403       .  A
C739        H749   1.083       .  S
C740        C745   1.487       .  S
C740        C741   1.409       .  A
C741        C742   1.402       .  A
C741        N746   1.429       .  S
C742        C743   1.407       .  A
C742        H747   1.082       .  S
C743        C744   1.415       .  A
C744        N748   1.429       .  S
C745        C750   1.410       .  A
C745        C754   1.402       .  A
N746        O761   1.262       .  A
N746        O762   1.262       .  A
N748        O759   1.262       .  A
N748        O760   1.262       .  A
C750        C751   1.403       .  A
C750        N755   1.429       .  S
C751        C752   1.405       .  A
C751        H756   1.082       .  S
C752        C753   1.416       .  A
C753        C754   1.402       .  A
C753        N757   1.431       .  S
C754        H758   1.082       .  S
N755        O765   1.262       .  A
N755        O766   1.262       .  A
N757        O763   1.262       .  A
N757        O764   1.262       .  A
C767        C768   1.405       .  A
C767        C772   1.403       .  A
C767        H777   1.081       .  S
C768        C773   1.497       .  S
C768        C769   1.415       .  A
C769        C770   1.404       .  A
C769        N774   1.430       .  S
C770        C771   1.404       .  A
C770        H775   1.083       .  S
C771        C772   1.413       .  A
C772        N776   1.429       .  S
C773        C778   1.415       .  A
C773        C782   1.404       .  A
N774        O789   1.262       .  A
N774        O790   1.262       .  A
N776        O787   1.262       .  A
N776        O788   1.262       .  A
C778        C779   1.405       .  A
C778        N783   1.429       .  S
C779        C780   1.404       .  A
C779        H784   1.082       .  S
C780        C781   1.415       .  A
C781        C782   1.402       .  A
C781        N785   1.431       .  S
C782        H786   1.081       .  S
N783        O793   1.262       .  A
N783        O794   1.262       .  A
N785        O791   1.262       .  A
N785        O792   1.262       .  A
C795        C796   1.400       .  A
C795        C800   1.400       .  A
C795        H805   1.082       .  S
C796        C801   1.480       .  S
C796        C797   1.407       .  A
C797        C798   1.403       .  A
C797        N802   1.428       .  S
C798        C799   1.406       .  A
C798        H803   1.082       .  S
C799        C800   1.414       .  A
C800        N804   1.431       .  S
C801        C806   1.407       .  A
C801        C810   1.402       .  A
N802        O817   1.262       .  A
N802        O818   1.262   1_655  A
N804        O815   1.262       .  A
N804        O816   1.262       .  A
C806        C807   1.399       .  A
C806        N811   1.429       .  S
C807        C808   1.405       .  A
C807        H812   1.082       .  S
C808        C809   1.415       .  A
C809        C810   1.403       .  A
C809        N813   1.429       .  S
C810        H814   1.082       .  S
N811        O821   1.262       .  A
N811        O822   1.262       .  A
N813        O819   1.262       .  A
N813        O820   1.262       .  A
C823        C824   1.400       .  A
C823        C828   1.398       .  A
C823        H833   1.083       .  S
C824        C829   1.472       .  S
C824        C825   1.407       .  A
C825        C826   1.400       .  A
C825        N830   1.429       .  S
C826        C827   1.405       .  A
C826        H831   1.083       .  S
C827        C828   1.410       .  A
C828        N832   1.429       .  S
C829        C834   1.405       .  A
C829        C838   1.401       .  A
N830        O845   1.262       .  A
N830        O846   1.262       .  A
N832        O843   1.262   1_556  A
N832        O844   1.261       .  A
C834        C835   1.397       .  A
C834        N839   1.429       .  S
C835        C836   1.408       .  A
C835        H840   1.082       .  S
C836        C837   1.412       .  A
C837        C838   1.400       .  A
C837        N841   1.428       .  S
C838        H842   1.083       .  S
N839        O849   1.262   1_556  A
N839        O850   1.262   1_556  A
N841        O847   1.262       .  A
N841        O848   1.262       .  A
C851        C852   1.401       .  A
C851        C856   1.398       .  A
C851        H861   1.082       .  S
C852        C857   1.488       .  S
C852        C853   1.410       .  A
C853        C854   1.404       .  A
C853        N858   1.429       .  S
C854        C855   1.407       .  A
C854        H859   1.082       .  S
C855        C856   1.417       .  A
C856        N860   1.429       .  S
C857        C862   1.410       .  A
C857        C866   1.404       .  A
N858        O873   1.262       .  A
N858        O874   1.262       .  A
N860        O871   1.262       .  A
N860        O872   1.262       .  A
C862        C863   1.399       .  A
C862        N867   1.430       .  S
C863        C864   1.405       .  A
C863        H868   1.080       .  S
C864        C865   1.415       .  A
C865        C866   1.403       .  A
C865        N869   1.429   1_545  S
C866        H870   1.081       .  S
N867        O877   1.262       .  A
N867        O878   1.262       .  A
N869        O875   1.262       .  A
N869        O876   1.262       .  A
C879        C880   1.400       .  A
C879        C884   1.399       .  A
C879        H889   1.083       .  S
C880        C885   1.483       .  S
C880        C881   1.409       .  A
C881        C882   1.404       .  A
C881        N886   1.430       .  S
C882        C883   1.410       .  A
C882        H887   1.082       .  S
C883        C884   1.417       .  A
C884        N888   1.428       .  S
C885        C890   1.411       .  A
C885        C894   1.401       .  A
N886        O901   1.262       .  A
N886        O902   1.262       .  A
N888        O899   1.262       .  A
N888        O900   1.262       .  A
C890        C891   1.405       .  A
C890        N895   1.429       .  S
C891        C892   1.405       .  A
C891        H896   1.082       .  S
C892        C893   1.411       .  A
C893        C894   1.398       .  A
C893        N897   1.428       .  S
C894        H898   1.083       .  S
N895        O905   1.262       .  A
N895        O906   1.262       .  A
N897        O903   1.262       .  A
N897        O904   1.261       .  A
C907        C908   1.405       .  A
C907        C912   1.402       .  A
C907        H917   1.081   1_655  S
C908        C913   1.486   1_655  S
C908        C909   1.411       .  A
C909        C910   1.401       .  A
C909        N914   1.429       .  S
C910        C911   1.403       .  A
C910        H915   1.082       .  S
C911        C912   1.409       .  A
C912        N916   1.430       .  S
C913        C918   1.409       .  A
C913        C922   1.404       .  A
N914        O929   1.262       .  A
N914        O930   1.262       .  A
N916        O927   1.261       .  A
N916        O928   1.262       .  A
C918        C919   1.400       .  A
C918        N923   1.429       .  S
C919        C920   1.406       .  A
C919        H924   1.082       .  S
C920        C921   1.414       .  A
C921        C922   1.402       .  A
C921        N925   1.429       .  S
C922        H926   1.081       .  S
N923        O933   1.262       .  A
N923        O934   1.262       .  A
N925        O931   1.262       .  A
N925        O932   1.262       .  A
C935        C936   1.403       .  A
C935        C940   1.399       .  A
C935        H945   1.084       .  S
C936        C941   1.489       .  S
C936        C937   1.410       .  A
C937        C938   1.403       .  A
C937        N942   1.429       .  S
C938        C939   1.408       .  A
C938        H943   1.084       .  S
C939        C940   1.414       .  A
C940        N944   1.429       .  S
C941        C946   1.412   1_565  A
C941        C950   1.405   1_565  A
N942        O957   1.262       .  A
N942        O958   1.262       .  A
N944        O955   1.262       .  A
N944        O956   1.262       .  A
C946        C947   1.398       .  A
C946        N951   1.430   1_545  S
C947        C948   1.402       .  A
C947        H952   1.086       .  S
C948        C949   1.412       .  A
C949        C950   1.404       .  A
C949        N953   1.429       .  S
C950        H954   1.085       .  S
N951        O961   1.262       .  A
N951        O962   1.262       .  A
N953        O959   1.262       .  A
N953        O960   1.262       .  A
C963        C964   1.405       .  A
C963        C968   1.402       .  A
C963        H973   1.081       .  S
C964        C969   1.485       .  S
C964        C965   1.412       .  A
C965        C966   1.397       .  A
C965        N970   1.430       .  S
C966        C967   1.401       .  A
C966        H971   1.082       .  S
C967        C968   1.410       .  A
C968        N972   1.429       .  S
C969        C974   1.411       .  A
C969        C978   1.402       .  A
N970        O985   1.262       .  A
N970        O986   1.262       .  A
N972        O983   1.262       .  A
N972        O984   1.262       .  A
C974        C975   1.403   1_556  A
C974        N979   1.429   1_556  S
C975        C976   1.405   1_554  A
C975        H980   1.082       .  S
C976        C977   1.413       .  A
C977        C978   1.397       .  A
C977        N981   1.431       .  S
C978        H982   1.082       .  S
N979        O989   1.262       .  A
N979        O990   1.262       .  A
N981        O987   1.262       .  A
N981        O988   1.262       .  A
C991        C992   1.402       .  A
C991        C996   1.400       .  A
C991       H1001   1.083       .  S
C992        C997   1.485       .  S
C992        C993   1.411       .  A
C993        C994   1.403   1_556  A
C993        N998   1.430   1_556  S
C994        C995   1.405   1_554  A
C994        H999   1.083       .  S
C995        C996   1.414       .  A
C996       N1000   1.429       .  S
C997       C1002   1.412       .  A
C997       C1006   1.403       .  A
N998       O1013   1.262       .  A
N998       O1014   1.262       .  A
N1000      O1011   1.262       .  A
N1000      O1012   1.262       .  A
C1002      C1003   1.403       .  A
C1002      N1007   1.430       .  S
C1003      C1004   1.403       .  A
C1003      H1008   1.083       .  S
C1004      C1005   1.411       .  A
C1005      C1006   1.401       .  A
C1005      N1009   1.429       .  S
C1006      H1010   1.083       .  S
N1007      O1017   1.262       .  A
N1007      O1018   1.262       .  A
N1009      O1015   1.262       .  A
N1009      O1016   1.262       .  A
C1019      C1020   1.402       .  A
C1019      C1024   1.403       .  A
C1019      H1029   1.083       .  S
C1020      C1025   1.479       .  S
C1020      C1021   1.407       .  A
C1021      C1022   1.398       .  A
C1021      N1026   1.430       .  S
C1022      C1023   1.406       .  A
C1022      H1027   1.083       .  S
C1023      C1024   1.412       .  A
C1024      N1028   1.428       .  S
C1025      C1030   1.407       .  A
C1025      C1034   1.402       .  A
N1026      O1041   1.262       .  A
N1026      O1042   1.262       .  A
N1028      O1039   1.262       .  A
N1028      O1040   1.262       .  A
C1030      C1031   1.398       .  A
C1030      N1035   1.430       .  S
C1031      C1032   1.406       .  A
C1031      H1036   1.080       .  S
C1032      C1033   1.413       .  A
C1033      C1034   1.403       .  A
C1033      N1037   1.428       .  S
C1034      H1038   1.082       .  S
N1035      O1045   1.262       .  A
N1035      O1046   1.262       .  A
N1037      O1043   1.262       .  A
N1037      O1044   1.262       .  A
C1047      C1048   1.404       .  A
C1047      C1052   1.400       .  A
C1047      H1057   1.081       .  S
C1048      C1053   1.486       .  S
C1048      C1049   1.409       .  A
C1049      C1050   1.401       .  A
C1049      N1054   1.428       .  S
C1050      C1051   1.405       .  A
C1050      H1055   1.082       .  S
C1051      C1052   1.411       .  A
C1052      N1056   1.429       .  S
C1053      C1058   1.409       .  A
C1053      C1062   1.407       .  A
N1054      O1069   1.262       .  A
N1054      O1070   1.262       .  A
N1056      O1067   1.261       .  A
N1056      O1068   1.262       .  A
C1058      C1059   1.394       .  A
C1058      N1063   1.430       .  S
C1059      C1060   1.404       .  A
C1059      H1064   1.082       .  S
C1060      C1061   1.412       .  A
C1061      C1062   1.406       .  A
C1061      N1065   1.429       .  S
C1062      H1066   1.081       .  S
N1063      O1073   1.262       .  A
N1063      O1074   1.262       .  A
N1065      O1071   1.262       .  A
N1065      O1072   1.262       .  A
C1075      C1076   1.400       .  A
C1075      C1080   1.397       .  A
C1075      H1085   1.084       .  S
C1076      C1081   1.480       .  S
C1076      C1077   1.411       .  A
C1077      C1078   1.403       .  A
C1077      N1082   1.430       .  S
C1078      C1079   1.405       .  A
C1078      H1083   1.083       .  S
C1079      C1080   1.411       .  A
C1080      N1084   1.429       .  S
C1081      C1086   1.408       .  A
C1081      C1090   1.402       .  A
N1082      O1097   1.262       .  A
N1082      O1098   1.262       .  A
N1084      O1095   1.262       .  A
N1084      O1096   1.262       .  A
C1086      C1087   1.401       .  A
C1086      N1091   1.430       .  S
C1087      C1088   1.408       .  A
C1087      H1092   1.083       .  S
C1088      C1089   1.411       .  A
C1089      C1090   1.399       .  A
C1089      N1093   1.428       .  S
C1090      H1094   1.083       .  S
N1091      O1101   1.262       .  A
N1091      O1102   1.262       .  A
N1093      O1099   1.261       .  A
N1093      O1100   1.262       .  A
C1103      C1104   1.402       .  A
C1103      C1108   1.397       .  A
C1103      H1113   1.080       .  S
C1104      C1109   1.488       .  S
C1104      C1105   1.411       .  A
C1105      C1106   1.402       .  A
C1105      N1110   1.429       .  S
C1106      C1107   1.406       .  A
C1106      H1111   1.080       .  S
C1107      C1108   1.415       .  A
C1108      N1112   1.429       .  S
C1109      C1114   1.411       .  A
C1109      C1118   1.405       .  A
N1110      O1125   1.262       .  A
N1110      O1126   1.262       .  A
N1112      O1123   1.262       .  A
N1112      O1124   1.262       .  A
C1114      C1115   1.395       .  A
C1114      N1119   1.430       .  S
C1115      C1116   1.404       .  A
C1115      H1120   1.081       .  S
C1116      C1117   1.415       .  A
C1117      C1118   1.404       .  A
C1117      N1121   1.429       .  S
C1118      H1122   1.080       .  S
N1119      O1129   1.262       .  A
N1119      O1130   1.262       .  A
N1121      O1127   1.262       .  A
N1121      O1128   1.262       .  A
C1131      C1132   1.403       .  A
C1131      C1136   1.399       .  A
C1131      H1141   1.083       .  S
C1132      C1137   1.488       .  S
C1132      C1133   1.411       .  A
C1133      C1134   1.404       .  A
C1133      N1138   1.431       .  S
C1134      C1135   1.409       .  A
C1134      H1139   1.083       .  S
C1135      C1136   1.413       .  A
C1136      N1140   1.428       .  S
C1137      C1142   1.412       .  A
C1137      C1146   1.402       .  A
N1138      O1153   1.262   1_556  A
N1138      O1154   1.262   1_556  A
N1140      O1151   1.262       .  A
N1140      O1152   1.262       .  A
C1142      C1143   1.405       .  A
C1142      N1147   1.431       .  S
C1143      C1144   1.409       .  A
C1143      H1148   1.082   1_556  S
C1144      C1145   1.413       .  A
C1145      C1146   1.400       .  A
C1145      N1149   1.428       .  S
C1146      H1150   1.083       .  S
N1147      O1157   1.262       .  A
N1147      O1158   1.262       .  A
N1149      O1155   1.262       .  A
N1149      O1156   1.262   1_556  A
C1159      C1160   1.405       .  A
C1159      C1164   1.407       .  A
C1159      H1169   1.082       .  S
C1160      C1165   1.491       .  S
C1160      C1161   1.408       .  A
C1161      C1162   1.400       .  A
C1161      N1166   1.429       .  S
C1162      C1163   1.408       .  A
C1162      H1167   1.082       .  S
C1163      C1164   1.416       .  A
C1164      N1168   1.428       .  S
C1165      C1170   1.410       .  A
C1165      C1174   1.403       .  A
N1166      O1181   1.262       .  A
N1166      O1182   1.262       .  A
N1168      O1179   1.262       .  A
N1168      O1180   1.262       .  A
C1170      C1171   1.405       .  A
C1170      N1175   1.429       .  S
C1171      C1172   1.406       .  A
C1171      H1176   1.082       .  S
C1172      C1173   1.413       .  A
C1173      C1174   1.405       .  A
C1173      N1177   1.432   1_556  S
C1174      H1178   1.082       .  S
N1175      O1185   1.262       .  A
N1175      O1186   1.262       .  A
N1177      O1183   1.262       .  A
N1177      O1184   1.262   1_554  A
C1187      C1188   1.404       .  A
C1187      C1192   1.405       .  A
C1187      H1197   1.082       .  S
C1188      C1193   1.484       .  S
C1188      C1189   1.407       .  A
C1189      C1190   1.395       .  A
C1189      N1194   1.430       .  S
C1190      C1191   1.407       .  A
C1190      H1195   1.082       .  S
C1191      C1192   1.417       .  A
C1192      N1196   1.429       .  S
C1193      C1198   1.409       .  A
C1193      C1202   1.402       .  A
N1194      O1209   1.262       .  A
N1194      O1210   1.262       .  A
N1196      O1207   1.262       .  A
N1196      O1208   1.262       .  A
C1198      C1199   1.402       .  A
C1198      N1203   1.428       .  S
C1199      C1200   1.405       .  A
C1199      H1204   1.082       .  S
C1200      C1201   1.413       .  A
C1201      C1202   1.398       .  A
C1201      N1205   1.430       .  S
C1202      H1206   1.082       .  S
N1203      O1213   1.262       .  A
N1203      O1214   1.262       .  A
N1205      O1211   1.262       .  A
N1205      O1212   1.262       .  A
C1215      C1216   1.403       .  A
C1215      C1220   1.401       .  A
C1215      H1225   1.083       .  S
C1216      C1221   1.492       .  S
C1216      C1217   1.413       .  A
C1217      C1218   1.407       .  A
C1217      N1222   1.429       .  S
C1218      C1219   1.404       .  A
C1218      H1223   1.083       .  S
C1219      C1220   1.413       .  A
C1220      N1224   1.430       .  S
C1221      C1226   1.412       .  A
C1221      C1230   1.403       .  A
N1222      O1237   1.262       .  A
N1222      O1238   1.262       .  A
N1224      O1235   1.262       .  A
N1224      O1236   1.262       .  A
C1226      C1227   1.405       .  A
C1226      N1231   1.429       .  S
C1227      C1228   1.405       .  A
C1227      H1232   1.083       .  S
C1228      C1229   1.414       .  A
C1229      C1230   1.402       .  A
C1229      N1233   1.429       .  S
C1230      H1234   1.083       .  S
N1231      O1241   1.262       .  A
N1231      O1242   1.262       .  A
N1233      O1239   1.262       .  A
N1233      O1240   1.262       .  A
