geometry optimzed in LAMMPS
_audit_creation_date              2020-11-30 
_audit_creation_method            'lammps2cif' 
_symmetry_space_group_name_H-M    'P1' 
_symmetry_Int_Tables_number       1 
_symmetry_cell_setting            triclinic 
loop_ 
_symmetry_equiv_pos_as_xyz 
  x,y,z 
_cell_length_a                    39.92435489 
_cell_length_b                    27.86355119711864 
_cell_length_c                    44.69467115946341 
_cell_angle_alpha                 90.00349390704666 
_cell_angle_beta                  90.16742523729573 
_cell_angle_gamma                 89.73440824974845 
loop_ 
_atom_site_label 
_atom_site_type_symbol 
_atom_site_fract_x 
_atom_site_fract_y 
_atom_site_fract_z 
_atom_site_charge 
C1          C  0.66934651  0.24046592  0.38328052     0.85700
C2          C  0.69493786  0.28196017  0.38517902    -0.54600
C3          C  0.71752876  0.28502817  0.36207927     0.08600
C4          C  0.71255158  0.24322894  0.33945455     0.19500
C5          C  0.65345673  0.24802483  0.35189996    -0.55300
C6          C  0.67592424  0.24860951  0.32893466     0.08700
C7          C  0.69094327  0.19547515  0.38085401    -0.54800
C8          C  0.71378599  0.19639837  0.35845006     0.09300
H9          H  0.69462042  0.30776640  0.40296970     0.13800
H10         H  0.72923579  0.24278782  0.31990758    -0.00500
H11         H  0.62685018  0.25380843  0.34829259     0.14100
H12         H  0.68920957  0.16570849  0.39652581     0.13900
C13         C  0.66757197  0.25396316  0.14704105     0.85700
C14         C  0.68700392  0.20626200  0.14944544    -0.54600
C15         C  0.71161745  0.20582284  0.17060415     0.08600
C16         C  0.71285545  0.25279570  0.18945116     0.19500
C17         C  0.65329187  0.25955802  0.17888203    -0.55300
C18         C  0.67677049  0.25909099  0.20103580     0.08700
C19         C  0.69476459  0.29233719  0.14391635    -0.54800
C20         C  0.71786007  0.29454907  0.16665893     0.09300
H21         H  0.68219496  0.17519427  0.13548242     0.13800
H22         H  0.73058262  0.25128583  0.20835878    -0.00500
H23         H  0.62676303  0.26174422  0.18372714     0.14100
H24         H  0.69546964  0.31579238  0.12454732     0.13900
O25         O  0.55119884  0.20707686  0.04754668    -0.73800
O26         O  0.48099588  0.19891882  0.48273569    -0.74700
O27         O  0.55223533  0.20203702  0.48422059    -0.63400
O28         O  0.47992018  0.20444274  0.04677925    -0.71800
O29         O  0.47849151  0.28398872  0.04421130    -0.71300
O30         O  0.55056915  0.28156696  0.48135523    -0.62600
O31         O  0.47945916  0.27843207  0.48056538    -0.75100
O32         O  0.54990065  0.28647937  0.04434114    -0.73900
Cu33       Cu  0.51607774  0.20030708  0.01541604     1.04600
Cu34       Cu  0.51445583  0.28533785  0.01254955     1.04300
C35         C  0.56198513  0.24811975  0.05580792     0.92400
C36         C  0.46931031  0.23759955  0.47129571     0.91600
C37         C  0.56298117  0.24136202  0.47316479     0.83700
C38         C  0.46793401  0.24471648  0.05547660     0.90000
C39         C  0.36046399  0.24674863  0.38244569     0.85700
C40         C  0.33564678  0.20460692  0.38286023    -0.54600
C41         C  0.30897141  0.20765271  0.36337227     0.08600
C42         C  0.30966094  0.25586418  0.34581263     0.19500
C43         C  0.37013445  0.24866522  0.34883067    -0.55300
C44         C  0.34368602  0.25454115  0.32965874     0.08700
C45         C  0.33884626  0.29093819  0.38849853    -0.54800
C46         C  0.31234767  0.29640046  0.36973601     0.09300
H47         H  0.33951668  0.17399041  0.39725649     0.13800
H48         H  0.28957653  0.26217836  0.32953509    -0.00500
H49         H  0.39537578  0.24322866  0.34062310     0.14100
H50         H  0.34401185  0.31581110  0.40661252     0.13900
C51         C  0.36071717  0.25380994  0.14575312     0.85700
C52         C  0.34112026  0.30083426  0.14192573    -0.54600
C53         C  0.31364213  0.30500196  0.15953754     0.08600
C54         C  0.30901904  0.26178880  0.18130940     0.19500
C55         C  0.36951073  0.25479611  0.17975344    -0.55300
C56         C  0.34230286  0.25794385  0.19836980     0.08700
C57         C  0.33426780  0.21434440  0.14225675    -0.54800
C58         C  0.30773861  0.21590483  0.16170932     0.09300
H59         H  0.34830352  0.32882182  0.12630723     0.13800
H60         H  0.28856461  0.26667196  0.19717273    -0.00500
H61         H  0.39465121  0.25655739  0.18873275     0.14100
H62         H  0.33652444  0.18751569  0.12481622     0.13900
C63         C  0.85734086  0.98939951  0.38149075     0.85700
C64         C  0.83606372  0.44438400  0.37910846    -0.54600
C65         C  0.81245213  0.44579318  0.35721216     0.08600
C66         C  0.81283219  0.99299678  0.33851196     0.19500
C67         C  0.87226491  0.99758647  0.34986057    -0.55300
C68         C  0.84908977  0.99864198  0.32724911     0.08700
C69         C  0.83155596  0.03073667  0.38423427    -0.54800
C70         C  0.80834912  0.03427370  0.36158984     0.09300
H71         H  0.83843915  0.41438552  0.39456858     0.13800
H72         H  0.79546351  0.99297730  0.31934602    -0.00500
H73         H  0.89872684  0.00338598  0.34584694     0.14100
H74         H  0.83212215  0.05599264  0.40241389     0.13900
C75         C  0.85733489  0.50244302  0.14444914     0.85700
C76         C  0.83019100  0.04147209  0.14138322    -0.54600
C77         C  0.80720847  0.04401008  0.16414822     0.08600
C78         C  0.81241266  0.50221080  0.18693641     0.19500
C79         C  0.87181029  0.50758892  0.17640267    -0.55300
C80         C  0.84851334  0.00786367  0.19860113     0.08700
C81         C  0.83764879  0.45519107  0.14679187    -0.54800
C82         C  0.81330732  0.45527111  0.16810172     0.09300
H83         H  0.82937008  0.06485443  0.12199077     0.13800
H84         H  0.79492693  0.50096713  0.20590579    -0.00500
H85         H  0.89837341  0.50957813  0.18117980     0.14100
H86         H  0.84239637  0.42380108  0.13310186     0.13900
O87         O  0.97561705  0.03879154  0.04351701    -0.73800
O88         O  0.04616696  0.03561036  0.47939820    -0.74700
O89         O  0.97472975  0.03522580  0.48024890    -0.63400
O90         O  0.04712141  0.03944289  0.04323554    -0.71800
O91         O  0.04777197  0.45982216  0.04479562    -0.71300
O92         O  0.97551736  0.45562534  0.48253200    -0.62600
O93         O  0.04679749  0.45604322  0.48106491    -0.75100
O94         O  0.97658325  0.45932821  0.04589379    -0.73900
Cu95       Cu  0.01094178  0.04005733  0.01154821     1.04600
Cu96       Cu  0.01171767  0.45496234  0.01363233     1.04300
C97         C  0.96465466  0.99961292  0.05459963     0.92400
C98         C  0.05760321  0.99538155  0.47004814     0.91600
C99         C  0.96357867  0.99454751  0.47170292     0.83700
C100        C  0.05878236  0.00021809  0.05395647     0.90000
C101        C  0.16682765  0.50003716  0.38148974     0.85700
C102        C  0.18896561  0.04345782  0.38716710    -0.54600
C103        C  0.21563468  0.04700297  0.36870315     0.08600
C104        C  0.21823483  0.50528592  0.34557344     0.19500
C105        C  0.15766708  0.50163619  0.34759208    -0.55300
C106        C  0.18459892  0.00529006  0.32867887     0.08700
C107        C  0.19091404  0.45659260  0.38279226    -0.54800
C108        C  0.21796136  0.45782322  0.36381716     0.09300
H109        H  0.18364428  0.06991724  0.40437366     0.13800
H110        H  0.23876161  0.50937033  0.32972855    -0.00500
H111        H  0.13237154  0.49800337  0.33907886     0.14100
H112        H  0.18647776  0.42677600  0.39771256     0.13900
C113        C  0.16659191  0.00472512  0.14355366     0.85700
C114        C  0.19331037  0.46525744  0.14082896    -0.54600
C115        C  0.21910909  0.46681913  0.16120657     0.08600
C116        C  0.21683153  0.01271154  0.18085936     0.19500
C117        C  0.15637214  0.00548050  0.17719954    -0.55300
C118        C  0.18277312  0.50880368  0.19682926     0.09500
C119        C  0.18600819  0.05163668  0.14038608    -0.54800
C120        C  0.21283902  0.05579830  0.15874785     0.09300
H121        H  0.19166449  0.43814724  0.12347715     0.13800
H122        H  0.23679785  0.01763750  0.19742672    -0.00500
H123        H  0.13072402  0.00594802  0.18500014     0.14100
H124        H  0.17925370  0.07966360  0.12456843     0.13900
C125        C  0.19722274  0.04407545  0.27848534    -0.02700
C126        C  0.18218714  0.00656568  0.29486502     0.07000
C127        C  0.16641898  0.46938885  0.27845303    -0.02800
C128        C  0.16605729  0.47004515  0.24661558    -0.02800
C129        C  0.17976194  0.50914855  0.23057995     0.07100
C130        C  0.19427722  0.04662698  0.24722098    -0.03000
Br131      Br  0.20925805  0.10406123  0.22817750    -0.01500
Br132      Br  0.22415929  0.09219497  0.29721808    -0.01600
Br133      Br  0.14929668  0.41515529  0.22533610    -0.01600
Br134      Br  0.14833782  0.41468866  0.29918073    -0.01500
C135        C  0.14283589  0.48001139  0.43380675    -0.02700
C136        C  0.13770958  0.49910015  0.40447222     0.07000
C137        C  0.10683036  0.02383618  0.39930129    -0.02800
C138        C  0.08014754  0.02012146  0.41991454    -0.02800
C139        C  0.08433227  0.99477452  0.44694761     0.07100
C140        C  0.11572519  0.47425191  0.45360303    -0.03000
Br141      Br  0.12242257  0.44021253  0.49087762    -0.01500
Br142      Br  0.18729369  0.47246270  0.45084705    -0.01600
Br143      Br  0.03726221  0.04929084  0.41079603    -0.01600
Br144      Br  0.10208779  0.07158428  0.36814443    -0.01500
C145        C  0.11708508  0.02061408  0.06961832    -0.02700
C146        C  0.08573121  0.00109155  0.07675750     0.07000
C147        C  0.08160140  0.47711687  0.10421838    -0.02800
C148        C  0.10818111  0.47474449  0.12509308    -0.02800
C149        C  0.13876032  0.99920835  0.11952524     0.07100
C150        C  0.14407135  0.01615313  0.08977194    -0.03000
Br151      Br  0.18871344  0.02517632  0.07375727    -0.01500
Br152      Br  0.12357868  0.05250755  0.03167104    -0.01600
Br153      Br  0.10406473  0.42869816  0.15704219    -0.01600
Br154      Br  0.03886755  0.44845175  0.11362993    -0.01500
C155        C  0.93868525  0.03349747  0.10122052    -0.02700
C156        C  0.93724219  0.00115249  0.07701950     0.07000
C157        C  0.90780393  0.47430156  0.07242180    -0.02800
C158        C  0.88043071  0.47923472  0.09209713    -0.02800
C159        C  0.88385290  0.50545766  0.11923198     0.07100
C160        C  0.91181459  0.03696900  0.12154740    -0.03000
Br161      Br  0.91237652  0.09035293  0.14926803    -0.01500
Br162      Br  0.97833194  0.07195639  0.10756729    -0.01600
Br163      Br  0.83684892  0.46019580  0.07731649    -0.01600
Br164      Br  0.90391493  0.43215510  0.03820867    -0.01500
C165        C  0.87760234  0.00442606  0.43602267    -0.02700
C166        C  0.88350602  0.98546996  0.40697433     0.07000
C167        C  0.91393198  0.45976467  0.40274309    -0.02800
C168        C  0.94054828  0.46457381  0.42324155    -0.02800
C169        C  0.93629966  0.99200479  0.44938839     0.07100
C170        C  0.90450136  0.01120833  0.45602293    -0.03000
Br171      Br  0.89699937  0.04421098  0.49343777    -0.01500
Br172      Br  0.83290105  0.00617399  0.45265453    -0.01600
Br173      Br  0.98322737  0.43428228  0.41504187    -0.01600
Br174      Br  0.91763681  0.41064632  0.37260813    -0.01500
C175        C  0.84225034  0.04677863  0.27969157    -0.02700
C176        C  0.85694078  0.00739352  0.29475687     0.07000
C177        C  0.87677394  0.47515169  0.27781118    -0.02800
C178        C  0.87708468  0.47789933  0.24618780    -0.02800
C179        C  0.85653585  0.01184239  0.23126611     0.07100
C180        C  0.84157095  0.04858499  0.24827410    -0.03000
Br181      Br  0.82275857  0.10421580  0.22881393    -0.01500
Br182      Br  0.82644722  0.10165124  0.30141237    -0.01600
Br183      Br  0.90647154  0.43580577  0.22399462    -0.01600
Br184      Br  0.90391885  0.42724305  0.29714330    -0.01500
C185        C  0.29262341  0.12774388  0.15475163    -0.02700
C186        C  0.28233381  0.17509135  0.16315988     0.07000
C187        C  0.24751019  0.18195997  0.16971176    -0.02800
C188        C  0.22425859  0.14481307  0.16422803    -0.02800
C189        C  0.23552347  0.09823096  0.15705105     0.07100
C190        C  0.26899033  0.09171518  0.14909422    -0.03000
Br191      Br  0.28077064  0.03847922  0.12350417    -0.01500
Br192      Br  0.33878758  0.10635570  0.15666212    -0.01600
Br193      Br  0.17655187  0.15837533  0.16631562    -0.01600
Br194      Br  0.22953706  0.23640857  0.19117118    -0.01500
C195        C  0.30235382  0.39392448  0.16654814    -0.02700
C196        C  0.29114246  0.34794436  0.15805037     0.07000
C197        C  0.25766386  0.34209358  0.14984818    -0.02800
C198        C  0.23413144  0.37848687  0.15545513    -0.02800
C199        C  0.24449239  0.42575403  0.16349739     0.07100
C200        C  0.27919436  0.43207981  0.17066023    -0.03000
Br201      Br  0.29677945  0.48837775  0.19021258    -0.01500
Br202      Br  0.34981127  0.40452985  0.17319957    -0.01600
Br203      Br  0.18793669  0.35819340  0.15774376    -0.01600
Br204      Br  0.24533186  0.28831301  0.12502235    -0.01500
C205        C  0.27793138  0.42238323  0.35781736    -0.02700
C206        C  0.24278546  0.41599003  0.36205711     0.07000
C207        C  0.23179591  0.36860372  0.36905281    -0.02800
C208        C  0.25491852  0.33192523  0.37590151    -0.02800
C209        C  0.28922339  0.33881503  0.37155222     0.07100
C210        C  0.30075457  0.38557117  0.36566368    -0.03000
Br211      Br  0.34814485  0.40002476  0.36799094    -0.01500
Br212      Br  0.29681241  0.47355841  0.33422853    -0.01600
Br213      Br  0.24045220  0.27675747  0.39834974    -0.01600
Br214      Br  0.18585714  0.34885644  0.36319340    -0.01500
C215        C  0.29525165  0.11896118  0.36787958    -0.02700
C216        C  0.28427849  0.16625968  0.36038560     0.07000
C217        C  0.24935370  0.17264573  0.35449663    -0.02800
C218        C  0.22646504  0.13546109  0.36104116    -0.02800
C219        C  0.23818871  0.08956413  0.36955114     0.07100
C220        C  0.27225193  0.08310307  0.37535034    -0.03000
Br221      Br  0.28661134  0.02966375  0.39964079    -0.01500
Br222      Br  0.34091054  0.09785226  0.36161611    -0.01600
Br223      Br  0.17882285  0.14671374  0.35615721    -0.01600
Br224      Br  0.23157266  0.22515513  0.33105103    -0.01500
C225        C  0.33368195  0.29590504  0.28038128    -0.02700
C226        C  0.34656887  0.25615301  0.29608054     0.07000
C227        C  0.35904705  0.21688650  0.27934495    -0.02800
C228        C  0.35791172  0.21756405  0.24760033    -0.02800
C229        C  0.34431532  0.25747284  0.23205603     0.07100
C230        C  0.33103900  0.29573760  0.24907822    -0.03000
Br231      Br  0.30706288  0.34808122  0.23106836    -0.01500
Br232      Br  0.32162461  0.35336378  0.30103902    -0.01600
Br233      Br  0.37119426  0.16106562  0.22575972    -0.01600
Br234      Br  0.37670989  0.16120318  0.29954061    -0.01500
C235        C  0.44719173  0.26330835  0.42128509    -0.02700
C236        C  0.44330770  0.23594033  0.44753069     0.07000
C237        C  0.41250022  0.21348671  0.45307778    -0.02800
C238        C  0.38506821  0.22149977  0.43382463    -0.02800
C239        C  0.38968211  0.24352914  0.40530155     0.07100
C240        C  0.42056091  0.26807658  0.40060365    -0.03000
Br241      Br  0.42577810  0.31611075  0.36966011    -0.01500
Br242      Br  0.48969464  0.29390301  0.41335282    -0.01600
Br243      Br  0.34104110  0.21409415  0.45139211    -0.01600
Br244      Br  0.40693105  0.17346167  0.48803772    -0.01500
C245        C  0.44703188  0.22761788  0.10730476    -0.02700
C246        C  0.44114277  0.24578740  0.07839894     0.07000
C247        C  0.40881371  0.26137340  0.07055930    -0.02800
C248        C  0.38262855  0.25992698  0.09161974    -0.02800
C249        C  0.38910822  0.24772530  0.12220387     0.07100
C250        C  0.42103996  0.22676094  0.12877322    -0.03000
Br251      Br  0.42857107  0.18646515  0.16329831    -0.01500
Br252      Br  0.49133412  0.20427586  0.11751368    -0.01600
Br253      Br  0.33745879  0.26883647  0.07635051    -0.01600
Br254      Br  0.40008650  0.28350536  0.03026892    -0.01500
C255        C  0.77510989  0.33143624  0.18262027    -0.02700
C256        C  0.74278622  0.33597742  0.16902882     0.07000
C257        C  0.73411418  0.38217103  0.15729772    -0.02800
C258        C  0.75834156  0.41827598  0.15436048    -0.02800
C259        C  0.78869077  0.41506189  0.17005341     0.07100
C260        C  0.79658909  0.37177634  0.18476699    -0.03000
Br261      Br  0.83767695  0.36728469  0.20709363    -0.01500
Br262      Br  0.79278124  0.27120030  0.19720049    -0.01600
Br263      Br  0.75082041  0.46986243  0.12616248    -0.01600
Br264      Br  0.68844045  0.40235477  0.15018909    -0.01500
C265        C  0.72960673  0.12189001  0.18578232    -0.02700
C266        C  0.73665549  0.16567554  0.17148652     0.07000
C267        C  0.76598415  0.16900969  0.15447172    -0.02800
C268        C  0.79018749  0.13217701  0.15550116    -0.02800
C269        C  0.78213171  0.08562255  0.16691665     0.07100
C270        C  0.75054796  0.08115401  0.18167425    -0.03000
Br271      Br  0.73281151  0.02057125  0.19517069    -0.01500
Br272      Br  0.69075084  0.11739431  0.21082390    -0.01600
Br273      Br  0.83525728  0.15196758  0.14630801    -0.01600
Br274      Br  0.77226750  0.22247661  0.12750379    -0.01500
C275        C  0.61932853  0.22577351  0.07419092    -0.02700
C276        C  0.58919921  0.25149242  0.07831745     0.07000
C277        C  0.58668810  0.28421274  0.10227318    -0.02800
C278        C  0.61288493  0.28799494  0.12337206    -0.02800
C279        C  0.64140469  0.25710902  0.12155448     0.07100
C280        C  0.64616285  0.23179636  0.09430597    -0.03000
Br281      Br  0.69059468  0.21507644  0.08039525    -0.01500
Br282      Br  0.62496232  0.18369807  0.04015677    -0.01600
Br283      Br  0.61075463  0.34108945  0.15124526    -0.01600
Br284      Br  0.54672730  0.32312508  0.10698266    -0.01500
C285        C  0.76935520  0.16017878  0.37206546    -0.02700
C286        C  0.73912715  0.15708659  0.35611159     0.07000
C287        C  0.73095018  0.11354240  0.34208929    -0.02800
C288        C  0.75191096  0.07270365  0.34504919    -0.02800
C289        C  0.78397793  0.07654193  0.35917864     0.07100
C290        C  0.79312031  0.12283053  0.37046936    -0.03000
Br291      Br  0.83902951  0.14122385  0.37868791    -0.01500
Br292      Br  0.77724482  0.21360727  0.39875720    -0.01600
Br293      Br  0.73367320  0.01293045  0.33052830    -0.01600
Br294      Br  0.68977135  0.10933470  0.31983287    -0.01500
C295        C  0.73323146  0.37355396  0.37053203    -0.02700
C296        C  0.74180559  0.32713878  0.35889022     0.07000
C297        C  0.77351530  0.32282569  0.34419367    -0.02800
C298        C  0.79467646  0.36321708  0.34115295    -0.02800
C299        C  0.78697526  0.40685324  0.35534542     0.07100
C300        C  0.75721568  0.41036687  0.37184667    -0.03000
Br301      Br  0.75047207  0.46334907  0.39918339    -0.01500
Br302      Br  0.68774267  0.39300654  0.37998507    -0.01600
Br303      Br  0.83581893  0.35821027  0.31893601    -0.01600
Br304      Br  0.79119978  0.26288599  0.32915201    -0.01500
C305        C  0.64849725  0.25685001  0.43769165    -0.02700
C306        C  0.64347891  0.23624078  0.40888393     0.07000
C307        C  0.61389534  0.20872116  0.40470079    -0.02800
C308        C  0.58707008  0.21245596  0.42492507    -0.02800
C309        C  0.59040075  0.24008089  0.45104522     0.07100
C310        C  0.62137074  0.26169071  0.45762802    -0.03000
Br311      Br  0.62736609  0.29576309  0.99492120    -0.01500
Br312      Br  0.69293034  0.26442224  0.45445991    -0.01600
Br313      Br  0.54507561  0.18106644  0.41612314    -0.01600
Br314      Br  0.61136253  0.15939482  0.37453519    -0.01500
C315        C  0.64852073  0.22460621  0.27953103    -0.02700
C316        C  0.66716784  0.25768788  0.29675268     0.07000
C317        C  0.68061655  0.29799168  0.28211920    -0.02800
C318        C  0.68235079  0.29961711  0.25078774    -0.02800
C319        C  0.66867717  0.26227363  0.23354089     0.07100
C320        C  0.64873896  0.22742087  0.24795113    -0.03000
Br321      Br  0.62105348  0.18410060  0.22506016    -0.01500
Br322      Br  0.62161768  0.17650290  0.29845689    -0.01600
Br323      Br  0.70138543  0.35515433  0.23176687    -0.01600
Br324      Br  0.69245334  0.35420132  0.30435661    -0.01500
C325        C  0.66933922  0.24046935  0.88328763     0.85700
C326        C  0.69493002  0.28196486  0.88518755    -0.54600
C327        C  0.71752221  0.28503372  0.86208856     0.08600
C328        C  0.71254708  0.24323434  0.83946373     0.19500
C329        C  0.65345150  0.24802792  0.85190602    -0.55300
C330        C  0.67592048  0.24861370  0.82894181     0.08700
C331        C  0.69093724  0.19547941  0.88086204    -0.54800
C332        C  0.71378133  0.19640371  0.85845918     0.09300
H333        H  0.69461124  0.30777065  0.90297853     0.13800
H334        H  0.72923262  0.24279398  0.81991764    -0.00500
H335        H  0.62684502  0.25381035  0.84829721     0.14100
H336        H  0.68920262  0.16571180  0.89653325     0.13900
C337        C  0.66758792  0.25395008  0.64704651     0.85700
C338        C  0.68701830  0.20624820  0.64945446    -0.54600
C339        C  0.71163045  0.20581003  0.67061433     0.08600
C340        C  0.71286809  0.25278452  0.68945994     0.19500
C341        C  0.65330536  0.25954807  0.67888653    -0.55300
C342        C  0.67678221  0.25908221  0.70104204     0.08700
C343        C  0.69478182  0.29232321  0.64392278    -0.54800
C344        C  0.71787544  0.29453626  0.66666703     0.09300
H345        H  0.68220838  0.17517766  0.63549418     0.13800
H346        H  0.73059371  0.25127521  0.70836868    -0.00500
H347        H  0.62677607  0.26173579  0.68372963     0.14100
H348        H  0.69548850  0.31577804  0.62455359     0.13900
O349        O  0.55121743  0.20708155  0.54754546    -0.73800
O350        O  0.48097757  0.19891797  0.98273592    -0.74700
O351        O  0.55221776  0.20203458  0.98422130    -0.63400
O352        O  0.47994078  0.20444583  0.54677717    -0.71800
O353        O  0.47851374  0.28399232  0.54421027    -0.71300
O354        O  0.55055337  0.28156460  0.98135869    -0.62600
O355        O  0.47944306  0.27843129  0.98056556    -0.75100
O356        O  0.54992205  0.28648371  0.54433772    -0.73900
Cu357      Cu  0.51609667  0.20030998  0.51541495     1.04600
Cu358      Cu  0.51447475  0.28534088  0.51254744     1.04300
C359        C  0.56200526  0.24812412  0.55580576     0.92400
C360        C  0.46929420  0.23759944  0.97129503     0.91600
C361        C  0.56296539  0.24136001  0.97316719     0.83700
C362        C  0.46795619  0.24471992  0.55547493     0.90000
C363        C  0.36045294  0.24676420  0.88244134     0.85700
C364        C  0.33563734  0.20461996  0.88285848    -0.54600
C365        C  0.30895923  0.20766517  0.86337421     0.08600
C366        C  0.30964546  0.25587367  0.84581273     0.19500
C367        C  0.37011978  0.24868034  0.84882545    -0.55300
C368        C  0.34366888  0.25454977  0.82965466     0.08700
C369        C  0.33883552  0.29095465  0.88849421    -0.54800
C370        C  0.31233435  0.29641371  0.86973421     0.09300
H371        H  0.33951045  0.17400130  0.89725264     0.13800
H372        H  0.28955742  0.26218043  0.82953753    -0.00500
H373        H  0.39536050  0.24324636  0.84061650     0.14100
H374        H  0.34400475  0.31583336  0.90660440     0.13900
C375        C  0.36073825  0.25379719  0.64574621     0.85700
C376        C  0.34114537  0.30082391  0.64192008    -0.54600
C377        C  0.31366228  0.30498753  0.65952493     0.08600
C378        C  0.30903186  0.26177017  0.68129167     0.19500
C379        C  0.36952335  0.25477442  0.67974891    -0.55300
C380        C  0.34231015  0.25792094  0.69836012     0.08700
C381        C  0.33428827  0.21433443  0.64224049    -0.54800
C382        C  0.30775478  0.21589269  0.66168807     0.09300
H383        H  0.34833469  0.32881633  0.62630720     0.13800
H384        H  0.28857262  0.26664565  0.69714938    -0.00500
H385        H  0.39466153  0.25653542  0.68873329     0.14100
H386        H  0.33654808  0.18750916  0.62479824     0.13900
C387        C  0.85733368  0.98940052  0.88149319     0.85700
C388        C  0.83605234  0.44438996  0.87911091    -0.54600
C389        C  0.81244329  0.44580081  0.85721263     0.08600
C390        C  0.81283044  0.99300143  0.83851025     0.19500
C391        C  0.87226244  0.99758078  0.84986454    -0.55300
C392        C  0.84909041  0.99863830  0.82725093     0.08700
C393        C  0.83155265  0.03074342  0.88423248    -0.54800
C394        C  0.80834798  0.03428148  0.86158620     0.09300
H395        H  0.83842343  0.41439275  0.89457265     0.13800
H396        H  0.79546451  0.99298321  0.81934235    -0.00500
H397        H  0.89872541  0.00337534  0.84585344     0.14100
H398        H  0.83211928  0.05600142  0.90241097     0.13900
C399        C  0.85734658  0.50243245  0.64445355     0.85700
C400        C  0.83020141  0.04145916  0.64138912    -0.54600
C401        C  0.80722121  0.04399743  0.66415600     0.08600
C402        C  0.81242841  0.50220030  0.68694417     0.19500
C403        C  0.87182494  0.50758172  0.67640582    -0.55300
C404        C  0.84853026  0.00785681  0.69860616     0.08700
C405        C  0.83766244  0.45517920  0.64679923    -0.54800
C406        C  0.81332306  0.45525907  0.66811095     0.09300
H407        H  0.82937803  0.06484076  0.62199633     0.13800
H408        H  0.79494479  0.50095668  0.70591508    -0.00500
H409        H  0.89838852  0.50957331  0.68118105     0.14100
H410        H  0.84240961  0.42378850  0.63310981     0.13900
O411        O  0.97562043  0.03879011  0.54351611    -0.73800
O412        O  0.04615693  0.03559422  0.97939292    -0.74700
O413        O  0.97472024  0.03521802  0.98025037    -0.63400
O414        O  0.04712527  0.03944738  0.54324137    -0.71800
O415        O  0.04777941  0.45982634  0.54479630    -0.71300
O416        O  0.97550530  0.45561826  0.98253691    -0.62600
O417        O  0.04678573  0.45602782  0.98106469    -0.75100
O418        O  0.97659031  0.45932657  0.54589024    -0.73900
Cu419      Cu  0.01094821  0.04006411  0.51155060     1.04600
Cu420      Cu  0.01172726  0.45496872  0.51363027     1.04300
C421        C  0.96465954  0.99960965  0.55459731     0.92400
C422        C  0.05759164  0.99536324  0.97004484     0.91600
C423        C  0.96356714  0.99453954  0.97170724     0.83700
C424        C  0.05878780  0.00022166  0.55396000     0.90000
C425        C  0.16681430  0.50004409  0.88148581     0.85700
C426        C  0.18895280  0.04346118  0.88717092    -0.54600
C427        C  0.21562185  0.04701643  0.86870762     0.08600
C428        C  0.21822144  0.50531035  0.84557020     0.19500
C429        C  0.15765324  0.50165553  0.84758848    -0.55300
C430        C  0.18458455  0.00531543  0.82867562     0.08700
C431        C  0.19090109  0.45660047  0.88278144    -0.54800
C432        C  0.21794872  0.45783792  0.86380662     0.09300
H433        H  0.18363295  0.06990901  0.90438471     0.13800
H434        H  0.23874725  0.50941184  0.82972532    -0.00500
H435        H  0.13235822  0.49801933  0.83907468     0.14100
H436        H  0.18646504  0.42677992  0.89769893     0.13900
C437        C  0.16661221  0.00471335  0.64354512     0.85700
C438        C  0.19333020  0.46524566  0.64081506    -0.54600
C439        C  0.21913291  0.46680550  0.66118880     0.08600
C440        C  0.21685895  0.01269617  0.68084369     0.19500
C441        C  0.15639922  0.00546798  0.67719310    -0.55300
C442        C  0.18280518  0.50879097  0.69681966     0.09500
C443        C  0.18602829  0.05162327  0.64037545    -0.54800
C444        C  0.21286286  0.05578249  0.65873237     0.09300
H445        H  0.19168187  0.43813953  0.62346111     0.13800
H446        H  0.23682829  0.01761884  0.69740811    -0.00500
H447        H  0.13075225  0.00593522  0.68499691     0.14100
H448        H  0.17927029  0.07965269  0.62456078     0.13900
C449        C  0.19720725  0.04410338  0.77848465    -0.02700
C450        C  0.18217437  0.00658941  0.79486103     0.07000
C451        C  0.16642326  0.46940234  0.77844644    -0.02800
C452        C  0.16607898  0.47004777  0.74660851    -0.02800
C453        C  0.17979720  0.50914139  0.73057216     0.07100
C454        C  0.19430677  0.04662412  0.74721490    -0.03000
Br455      Br  0.20936122  0.10401380  0.72816495    -0.01500
Br456      Br  0.22405031  0.09229976  0.79724514    -0.01600
Br457      Br  0.14933085  0.41514851  0.72532985    -0.01600
Br458      Br  0.14832836  0.41471159  0.79917395    -0.01500
C459        C  0.14282392  0.48000281  0.93380140    -0.02700
C460        C  0.13769611  0.49909592  0.90446794     0.07000
C461        C  0.10681352  0.02382162  0.89929704    -0.02800
C462        C  0.08012990  0.02009374  0.91990814    -0.02800
C463        C  0.08431872  0.99475241  0.94694254     0.07100
C464        C  0.11571392  0.47423881  0.95359827    -0.03000
Br465      Br  0.12241451  0.44020311  0.99087375    -0.01500
Br466      Br  0.18728267  0.47244716  0.95083882    -0.01600
Br467      Br  0.03723721  0.04923641  0.91078455    -0.01600
Br468      Br  0.10206642  0.07158065  0.86814705    -0.01500
C469        C  0.11709124  0.02062042  0.56961821    -0.02700
C470        C  0.08573935  0.00109287  0.57675925     0.07000
C471        C  0.08161646  0.47710817  0.60421813    -0.02800
C472        C  0.10819989  0.47473373  0.62508942    -0.02800
C473        C  0.13877653  0.99920143  0.61951969     0.07100
C474        C  0.14408149  0.01615439  0.58976719    -0.03000
Br475      Br  0.18872040  0.02517902  0.57374539    -0.01500
Br476      Br  0.12357768  0.05252442  0.53167327    -0.01600
Br477      Br  0.10409237  0.42868212  0.65703642    -0.01600
Br478      Br  0.03888738  0.44843040  0.61363101    -0.01500
C479        C  0.93868994  0.03349601  0.60121741    -0.02700
C480        C  0.93724845  0.00114593  0.57701881     0.07000
C481        C  0.90781317  0.47428607  0.57242568    -0.02800
C482        C  0.88044056  0.47921883  0.59210174    -0.02800
C483        C  0.88386206  0.50544773  0.61923439     0.07100
C484        C  0.91182113  0.03696459  0.62154631    -0.03000
Br485      Br  0.91238217  0.09034990  0.64926587    -0.01500
Br486      Br  0.97833274  0.07196563  0.60755910    -0.01600
Br487      Br  0.83685915  0.46017349  0.57732340    -0.01600
Br488      Br  0.90392689  0.43212669  0.53821861    -0.01500
C489        C  0.87759308  0.00443184  0.93602443    -0.02700
C490        C  0.88349589  0.98546725  0.90697836     0.07000
C491        C  0.91391806  0.45975228  0.90275033    -0.02800
C492        C  0.94053338  0.46455691  0.92324993    -0.02800
C493        C  0.93628770  0.99199629  0.94939360     0.07100
C494        C  0.90449208  0.01121260  0.95602462    -0.03000
Br495      Br  0.89699294  0.04423349  0.99343359    -0.01500
Br496      Br  0.83289130  0.00619137  0.95265482    -0.01600
Br497      Br  0.98320803  0.43424843  0.91505540    -0.01600
Br498      Br  0.91761926  0.41063040  0.87261717    -0.01500
C499        C  0.84226337  0.04677734  0.77969361    -0.02700
C500        C  0.85694749  0.00738866  0.79476002     0.07000
C501        C  0.87678214  0.47514591  0.77781629    -0.02800
C502        C  0.87709885  0.47789556  0.74619311    -0.02800
C503        C  0.85655415  0.01184019  0.73127016     0.07100
C504        C  0.84158966  0.04858500  0.74827629    -0.03000
Br505      Br  0.82278519  0.10421903  0.72881390    -0.01500
Br506      Br  0.82646062  0.10165156  0.80141305    -0.01600
Br507      Br  0.90648901  0.43580407  0.72400200    -0.01600
Br508      Br  0.90392016  0.42723169  0.79715070    -0.01500
C509        C  0.29264039  0.12773545  0.65472578    -0.02700
C510        C  0.28234906  0.17508157  0.66313412     0.07000
C511        C  0.24752504  0.18194864  0.66968762    -0.02800
C512        C  0.22427590  0.14479545  0.66421296    -0.02800
C513        C  0.23554371  0.09821674  0.65703201     0.07100
C514        C  0.26900848  0.09170672  0.64906745    -0.03000
Br515      Br  0.28078608  0.03848117  0.62346817    -0.01500
Br516      Br  0.33880447  0.10634739  0.65664308    -0.01600
Br517      Br  0.17656751  0.15833656  0.66632995    -0.01600
Br518      Br  0.22954569  0.23640882  0.69113204    -0.01500
C519        C  0.30237712  0.39390689  0.66654096    -0.02700
C520        C  0.29116583  0.34793095  0.65803510     0.07000
C521        C  0.25769071  0.34208481  0.64982174    -0.02800
C522        C  0.23415768  0.37847635  0.65542843    -0.02800
C523        C  0.24451794  0.42574260  0.66347411     0.07100
C524        C  0.27921959  0.43206801  0.67064076    -0.03000
Br525      Br  0.29680987  0.48838183  0.69017148    -0.01500
Br526      Br  0.34983084  0.40449141  0.67322926    -0.01600
Br527      Br  0.18796367  0.35817765  0.65771400    -0.01600
Br528      Br  0.24536525  0.28831059  0.62498770    -0.01500
C529        C  0.27791752  0.42239302  0.85779517    -0.02700
C530        C  0.24277282  0.41600345  0.86204418     0.07000
C531        C  0.23178497  0.36861955  0.86904860    -0.02800
C532        C  0.25490834  0.33194618  0.87590516    -0.02800
C533        C  0.28921222  0.33883186  0.87154882     0.07100
C534        C  0.30074282  0.38558368  0.86564447    -0.03000
Br535      Br  0.34813718  0.40002286  0.86793332    -0.01500
Br536      Br  0.29678750  0.47354656  0.83418066    -0.01600
Br537      Br  0.24044502  0.27679485  0.89837047    -0.01600
Br538      Br  0.18584890  0.34886280  0.86318409    -0.01500
C539        C  0.29524324  0.11897088  0.86786897    -0.02700
C540        C  0.28426599  0.16627342  0.86039120     0.07000
C541        C  0.24933790  0.17266673  0.85452613    -0.02800
C542        C  0.22645147  0.13548584  0.86108302    -0.02800
C543        C  0.23817878  0.08957655  0.86956458     0.07100
C544        C  0.27224713  0.08310603  0.87533848    -0.03000
Br545      Br  0.28662155  0.02964510  0.89960277    -0.01500
Br546      Br  0.34090189  0.09787563  0.86158847    -0.01600
Br547      Br  0.17880593  0.14676792  0.85625310    -0.01600
Br548      Br  0.23154703  0.22517392  0.83108449    -0.01500
C549        C  0.33362509  0.29587500  0.78036900    -0.02700
C550        C  0.34654815  0.25615238  0.79607475     0.07000
C551        C  0.35906363  0.21690358  0.77934368    -0.02800
C552        C  0.35793324  0.21757159  0.74759842    -0.02800
C553        C  0.34431136  0.25745693  0.73204777     0.07100
C554        C  0.33099586  0.29570090  0.74906506    -0.03000
Br555      Br  0.30698673  0.34801104  0.73104885    -0.01500
Br556      Br  0.32148837  0.35330761  0.80101827    -0.01600
Br557      Br  0.37125338  0.16108205  0.72576548    -0.01600
Br558      Br  0.37676556  0.16124945  0.79954476    -0.01500
C559        C  0.44718262  0.26330869  0.92128200    -0.02700
C560        C  0.44329412  0.23594257  0.94752794     0.07000
C561        C  0.41248428  0.21349556  0.95307381    -0.02800
C562        C  0.38505383  0.22151694  0.93382060    -0.02800
C563        C  0.38967130  0.24354274  0.90529694     0.07100
C564        C  0.42055380  0.26808044  0.90059852    -0.03000
Br565      Br  0.42577991  0.31610660  0.86965163    -0.01500
Br566      Br  0.48968866  0.29389659  0.91335278    -0.01600
Br567      Br  0.34102526  0.21412553  0.95138765    -0.01600
Br568      Br  0.40691021  0.17346647  0.98803122    -0.01500
C569        C  0.44705520  0.22761819  0.60730139    -0.02700
C570        C  0.44116601  0.24579059  0.57839652     0.07000
C571        C  0.40883783  0.26137791  0.57055629    -0.02800
C572        C  0.38265227  0.25992815  0.59161552    -0.02800
C573        C  0.38913097  0.24771945  0.62219906     0.07100
C574        C  0.42106298  0.22675738  0.62876894    -0.03000
Br575      Br  0.42859538  0.18646125  0.66329322    -0.01500
Br576      Br  0.49135799  0.20427739  0.61750992    -0.01600
Br577      Br  0.33748379  0.26884850  0.57634461    -0.01600
Br578      Br  0.40011257  0.28351567  0.53026648    -0.01500
C579        C  0.77512469  0.33142473  0.68263148    -0.02700
C580        C  0.74280174  0.33596503  0.66903818     0.07000
C581        C  0.73413028  0.38215862  0.65730668    -0.02800
C582        C  0.75835724  0.41826443  0.65437076    -0.02800
C583        C  0.78870636  0.41505009  0.67006366     0.07100
C584        C  0.79660435  0.37176480  0.68477775    -0.03000
Br585      Br  0.83769246  0.36727424  0.70710454    -0.01500
Br586      Br  0.79279385  0.27119019  0.69721598    -0.01600
Br587      Br  0.75083497  0.46985472  0.62617554    -0.01600
Br588      Br  0.68845719  0.40234180  0.65019618    -0.01500
C589        C  0.72961990  0.12187699  0.68579308    -0.02700
C590        C  0.73666866  0.16566293  0.67149756     0.07000
C591        C  0.76599711  0.16899740  0.65448254    -0.02800
C592        C  0.79019990  0.13216415  0.65551045    -0.02800
C593        C  0.78214467  0.08560982  0.66692631     0.07100
C594        C  0.75056196  0.08114143  0.68168580    -0.03000
Br595      Br  0.73282882  0.02055937  0.69518731    -0.01500
Br596      Br  0.69076206  0.11737971  0.71083222    -0.01600
Br597      Br  0.83526887  0.15195398  0.64631404    -0.01600
Br598      Br  0.77228103  0.22246594  0.62751587    -0.01500
C599        C  0.61934406  0.22576216  0.57419380    -0.02700
C600        C  0.58921960  0.25149475  0.57831578     0.07000
C601        C  0.58671284  0.28422020  0.60226918    -0.02800
C602        C  0.61290771  0.28799345  0.62337091    -0.02800
C603        C  0.64142220  0.25709620  0.62155787     0.07100
C604        C  0.64617738  0.23177527  0.59431143    -0.03000
Br605      Br  0.69060614  0.21502865  0.58040486    -0.01500
Br606      Br  0.62497363  0.18368382  0.54016015    -0.01600
Br607      Br  0.61078012  0.34108623  0.65124549    -0.01600
Br608      Br  0.54676043  0.32315279  0.60697169    -0.01500
C609        C  0.76935227  0.16018295  0.87206910    -0.02700
C610        C  0.73912184  0.15709100  0.85611888     0.07000
C611        C  0.73094402  0.11354804  0.84209539    -0.02800
C612        C  0.75190844  0.07271149  0.84504761    -0.02800
C613        C  0.78397682  0.07654989  0.85917457     0.07100
C614        C  0.79311878  0.12283719  0.87046729    -0.03000
Br615      Br  0.83902869  0.14123178  0.87868139    -0.01500
Br616      Br  0.77724212  0.21360449  0.89876612    -0.01600
Br617      Br  0.73367440  0.01294113  0.83051829    -0.01600
Br618      Br  0.68975718  0.10933720  0.81985104    -0.01500
C619        C  0.73322260  0.37356221  0.87053733    -0.02700
C620        C  0.74179807  0.32714556  0.85889851     0.07000
C621        C  0.77350738  0.32283269  0.84420117    -0.02800
C622        C  0.79466593  0.36322571  0.84115539    -0.02800
C623        C  0.78696446  0.40686344  0.85534560     0.07100
C624        C  0.75720529  0.41037806  0.87184767    -0.03000
Br625      Br  0.75045976  0.46336764  0.89917850    -0.01500
Br626      Br  0.68773369  0.39301093  0.87999245    -0.01600
Br627      Br  0.83580519  0.35821994  0.81893355    -0.01600
Br628      Br  0.79119622  0.26289108  0.82916663    -0.01500
C629        C  0.64848544  0.25684912  0.93769834    -0.02700
C630        C  0.64346920  0.23624267  0.90888963     0.07000
C631        C  0.61388572  0.20872353  0.90470433    -0.02800
C632        C  0.58705850  0.21245778  0.92492697    -0.02800
C633        C  0.59038723  0.24007995  0.95104865     0.07100
C634        C  0.62135742  0.26168830  0.95763364    -0.03000
Br635      Br  0.62738135  0.29576787  0.49491461    -0.01500
Br636      Br  0.69291778  0.26441962  0.95446836    -0.01600
Br637      Br  0.54506399  0.18107207  0.91612014    -0.01600
Br638      Br  0.61135646  0.15939640  0.87453902    -0.01500
C639        C  0.64852198  0.22460672  0.77953645    -0.02700
C640        C  0.66716666  0.25769018  0.79675884     0.07000
C641        C  0.68061766  0.29799201  0.78212490    -0.02800
C642        C  0.68235709  0.29961314  0.75079346    -0.02800
C643        C  0.66868606  0.26226746  0.73354666     0.07100
C644        C  0.64874598  0.22741631  0.74795638    -0.03000
Br645      Br  0.62106601  0.18409064  0.72506416    -0.01500
Br646      Br  0.62161222  0.17651035  0.79846140    -0.01600
Br647      Br  0.70139576  0.35514716  0.73177233    -0.01600
Br648      Br  0.69244916  0.35420523  0.80436115    -0.01500
C649        C  0.66934615  0.74046432  0.38328004     0.85700
C650        C  0.69493711  0.78195916  0.38517832    -0.54600
C651        C  0.71752786  0.78502744  0.36207842     0.08600
C652        C  0.71255089  0.74322799  0.33945383     0.19500
C653        C  0.65345609  0.74802270  0.35189960    -0.55300
C654        C  0.67592337  0.74860774  0.32893418     0.08700
C655        C  0.69094338  0.69547406  0.38085356    -0.54800
C656        C  0.71378595  0.69639761  0.35844953     0.09300
H657        H  0.69461965  0.80776518  0.40296897     0.13800
H658        H  0.72923486  0.74278704  0.31990675    -0.00500
H659        H  0.62684941  0.75380578  0.34829238     0.14100
H660        H  0.68921014  0.66570742  0.39652553     0.13900
C661        C  0.66757170  0.75396168  0.14704091     0.85700
C662        C  0.68700394  0.70626079  0.14944587    -0.54600
C663        C  0.71161718  0.70582233  0.17060487     0.08600
C664        C  0.71285458  0.75279548  0.18945156     0.19500
C665        C  0.65329108  0.75955677  0.17888168    -0.55300
C666        C  0.67676940  0.75909037  0.20103570     0.08700
C667        C  0.69476410  0.79233606  0.14391636    -0.54800
C668        C  0.71785927  0.79454855  0.16665914     0.09300
H669        H  0.68219521  0.67519251  0.13548323     0.13800
H670        H  0.73058148  0.75128614  0.20835939    -0.00500
H671        H  0.62676218  0.76174262  0.18372643     0.14100
H672        H  0.69546927  0.81579113  0.12454714     0.13900
O673        O  0.55119880  0.70707570  0.04754613    -0.73800
O674        O  0.48099553  0.69891794  0.48273519    -0.74700
O675        O  0.55223494  0.70203567  0.48422002    -0.63400
O676        O  0.47992032  0.70444183  0.04677895    -0.71800
O677        O  0.47849167  0.78398781  0.04421073    -0.71300
O678        O  0.55056871  0.78156556  0.48135399    -0.62600
O679        O  0.47945881  0.77843115  0.48056445    -0.75100
O680        O  0.54990087  0.78647816  0.04434022    -0.73900
Cu681      Cu  0.51607758  0.70030578  0.01541564     1.04600
Cu682      Cu  0.51445575  0.78533650  0.01254883     1.04300
C683        C  0.56198529  0.74811861  0.05580715     0.92400
C684        C  0.46930994  0.73759850  0.47129500     0.91600
C685        C  0.56298069  0.74136045  0.47316387     0.83700
C686        C  0.46793429  0.74471566  0.05547624     0.90000
C687        C  0.36046246  0.74674836  0.38244603     0.85700
C688        C  0.33564518  0.70460680  0.38286085    -0.54600
C689        C  0.30896939  0.70765285  0.36337338     0.08600
C690        C  0.30965853  0.75586450  0.34581396     0.19500
C691        C  0.37013208  0.74866537  0.34883080    -0.55300
C692        C  0.34368317  0.75454160  0.32965932     0.08700
C693        C  0.33884507  0.79093798  0.38849949    -0.54800
C694        C  0.31234604  0.79640056  0.36973750     0.09300
H695        H  0.33951538  0.67399011  0.39725681     0.13800
H696        H  0.28957367  0.76217875  0.32953691    -0.00500
H697        H  0.39537311  0.74322869  0.34062275     0.14100
H698        H  0.34401137  0.81581096  0.40661325     0.13900
C699        C  0.36071830  0.75380912  0.14575334     0.85700
C700        C  0.34112112  0.80083302  0.14192489    -0.54600
C701        C  0.31364305  0.80500164  0.15953667     0.08600
C702        C  0.30902024  0.76178981  0.18130959     0.19500
C703        C  0.36951200  0.75479729  0.17975358    -0.55300
C704        C  0.34230425  0.75794569  0.19836993     0.08700
C705        C  0.33426906  0.71434310  0.14225799    -0.54800
C706        C  0.30773983  0.71590479  0.16171051     0.09300
H707        H  0.34830412  0.82881947  0.12630555     0.13800
H708        H  0.28856599  0.76667396  0.19717288    -0.00500
H709        H  0.39465255  0.75655915  0.18873289     0.14100
H710        H  0.33652579  0.68751322  0.12481824     0.13900
C711        C  0.85734200  0.48940050  0.38149187     0.85700
C712        C  0.83606243  0.94438319  0.37910713    -0.54600
C713        C  0.81245089  0.94579272  0.35721079     0.08600
C714        C  0.81283328  0.49299704  0.33851313     0.19500
C715        C  0.87226599  0.49758727  0.34986165    -0.55300
C716        C  0.84909079  0.49864238  0.32725023     0.08700
C717        C  0.83155695  0.53073752  0.38423524    -0.54800
C718        C  0.80835007  0.53427421  0.36159082     0.09300
H719        H  0.83843774  0.91438453  0.39456716     0.13800
H720        H  0.79546461  0.49297717  0.31934717    -0.00500
H721        H  0.89872783  0.50338704  0.34584797     0.14100
H722        H  0.83212304  0.55599365  0.40241488     0.13900
C723        C  0.85733425  0.00244198  0.14444795     0.85700
C724        C  0.83019159  0.54147312  0.14138463    -0.54600
C725        C  0.80720908  0.54401078  0.16414969     0.08600
C726        C  0.81241190  0.00221034  0.18693516     0.19500
C727        C  0.87180957  0.00758820  0.17640151    -0.55300
C728        C  0.84851410  0.50786417  0.19860232     0.08700
C729        C  0.83764807  0.95519010  0.14679082    -0.54800
C730        C  0.81330659  0.95527042  0.16810068     0.09300
H731        H  0.82937065  0.56485583  0.12199228     0.13800
H732        H  0.79492606  0.00096692  0.20590441    -0.00500
H733        H  0.89837269  0.00957747  0.18117868     0.14100
H734        H  0.84239558  0.92379995  0.13310085     0.13900
O735        O  0.97561785  0.53879256  0.04351831    -0.73800
O736        O  0.04616763  0.53561014  0.47939919    -0.74700
O737        O  0.97473059  0.53522598  0.48025022    -0.63400
O738        O  0.04712225  0.53944398  0.04323627    -0.71800
O739        O  0.04777122  0.95982110  0.04479479    -0.71300
O740        O  0.97551697  0.95562518  0.48253023    -0.62600
O741        O  0.04679730  0.95604344  0.48106366    -0.75100
O742        O  0.97658242  0.95932719  0.04589226    -0.73900
Cu743      Cu  0.01094241  0.54005813  0.01154929     1.04600
Cu744      Cu  0.01171731  0.95496162  0.01363108     1.04300
C745        C  0.96465552  0.49961399  0.05460109     0.92400
C746        C  0.05760355  0.49538109  0.47004919     0.91600
C747        C  0.96357933  0.49454769  0.47170447     0.83700
C748        C  0.05878328  0.50021919  0.05395709     0.90000
C749        C  0.16682781  0.00003956  0.38148923     0.85700
C750        C  0.18896537  0.54345542  0.38716781    -0.54600
C751        C  0.21563424  0.54700114  0.36870372     0.08600
C752        C  0.21823525  0.00528728  0.34557319     0.19500
C753        C  0.15766749  0.00163790  0.34759151    -0.55300
C754        C  0.18459842  0.50528893  0.32867936     0.08700
C755        C  0.19091408  0.95659498  0.38279228    -0.54800
C756        C  0.21796153  0.95782500  0.36381735     0.09300
H757        H  0.18364401  0.56991461  0.40437452     0.13800
H758        H  0.23876217  0.00937137  0.32972839    -0.00500
H759        H  0.13237191  0.99800487  0.33907813     0.14100
H760        H  0.18647765  0.92677886  0.39771289     0.13900
C761        C  0.16659253  0.50472674  0.14355427     0.85700
C762        C  0.19330965  0.96525565  0.14082811    -0.54600
C763        C  0.21910888  0.96681769  0.16120523     0.08600
C764        C  0.21683134  0.51271281  0.18086083     0.19500
C765        C  0.15637204  0.50548176  0.17719995    -0.55300
C766        C  0.18277364  0.00880262  0.19682842     0.09500
C767        C  0.18600881  0.55163838  0.14038718    -0.54800
C768        C  0.21283929  0.55579976  0.15874942     0.09300
H769        H  0.19166341  0.93814542  0.12347654     0.13800
H770        H  0.23679734  0.51763872  0.19742856    -0.00500
H771        H  0.13072377  0.50594908  0.18500012     0.14100
H772        H  0.17925466  0.57966536  0.12456950     0.13900
C773        C  0.19722179  0.54407548  0.27848609    -0.02700
C774        C  0.18218644  0.50656527  0.29486560     0.07000
C775        C  0.16641975  0.96938905  0.27845258    -0.02800
C776        C  0.16605809  0.97004489  0.24661510    -0.02800
C777        C  0.17976315  0.00914779  0.23057922     0.07100
C778        C  0.19427544  0.54662788  0.24722187    -0.03000
Br779      Br  0.20925382  0.60406366  0.22817876    -0.01500
Br780      Br  0.22416003  0.59219362  0.29721839    -0.01600
Br781      Br  0.14929720  0.91515479  0.22533590    -0.01600
Br782      Br  0.14833856  0.91468917  0.29918054    -0.01500
C783        C  0.14283621  0.98001475  0.43380639    -0.02700
C784        C  0.13770972  0.99910270  0.40447168     0.07000
C785        C  0.10683060  0.52383488  0.39930221    -0.02800
C786        C  0.08014791  0.52012098  0.41991565    -0.02800
C787        C  0.08433237  0.49477336  0.44694848     0.07100
C788        C  0.11572548  0.97425460  0.45360258    -0.03000
Br789      Br  0.12242327  0.94021630  0.49087753    -0.01500
Br790      Br  0.18729412  0.97246787  0.45084682    -0.01600
Br791      Br  0.03726319  0.54929275  0.41079781    -0.01600
Br792      Br  0.10208833  0.57158333  0.36814554    -0.01500
C793        C  0.11708621  0.52061492  0.06961850    -0.02700
C794        C  0.08573228  0.50109273  0.07675789     0.07000
C795        C  0.08160036  0.97711539  0.10421794    -0.02800
C796        C  0.10818001  0.97474332  0.12509282    -0.02800
C797        C  0.13876126  0.49920993  0.11952563     0.07100
C798        C  0.14407237  0.51615475  0.08977234    -0.03000
Br799      Br  0.18871449  0.52517933  0.07375812    -0.01500
Br800      Br  0.12357993  0.55250659  0.03167062    -0.01600
Br801      Br  0.10406322  0.92869827  0.15704262    -0.01600
Br802      Br  0.03886679  0.94844907  0.11362903    -0.01500
C803        C  0.93868598  0.53349873  0.10122187    -0.02700
C804        C  0.93724305  0.50115357  0.07702093     0.07000
C805        C  0.90780295  0.97430081  0.07242034    -0.02800
C806        C  0.88042984  0.97923386  0.09209581    -0.02800
C807        C  0.88385224  0.00545649  0.11923078     0.07100
C808        C  0.91181520  0.53697023  0.12154864    -0.03000
Br809      Br  0.91237681  0.59035422  0.14926919    -0.01500
Br810      Br  0.97833260  0.57195791  0.10756863    -0.01600
Br811      Br  0.83684794  0.96019488  0.07731539    -0.01600
Br812      Br  0.90391368  0.93215484  0.03820706    -0.01500
C813        C  0.87760330  0.50442680  0.43602382    -0.02700
C814        C  0.88350723  0.48547116  0.40697540     0.07000
C815        C  0.91393069  0.95976342  0.40274198    -0.02800
C816        C  0.94054717  0.96457300  0.42324022    -0.02800
C817        C  0.93630048  0.49200508  0.44938986     0.07100
C818        C  0.90450215  0.51120856  0.45602430    -0.03000
Br819      Br  0.89699990  0.54421080  0.49343920    -0.01500
Br820      Br  0.83290186  0.50617485  0.45265541    -0.01600
Br821      Br  0.98322619  0.93428163  0.41504030    -0.01600
Br822      Br  0.91763511  0.91064465  0.37260725    -0.01500
C823        C  0.84225158  0.54677923  0.27969272    -0.02700
C824        C  0.85694170  0.50739381  0.29475797     0.07000
C825        C  0.87677336  0.97515173  0.27781013    -0.02800
C826        C  0.87708414  0.97789933  0.24618673    -0.02800
C827        C  0.85653671  0.51184281  0.23126725     0.07100
C828        C  0.84157222  0.54858571  0.24827525    -0.03000
Br829      Br  0.82276056  0.60421699  0.22881505    -0.01500
Br830      Br  0.82644897  0.60165211  0.30141353    -0.01600
Br831      Br  0.90647152  0.93580625  0.22399370    -0.01600
Br832      Br  0.90391833  0.92724321  0.29714237    -0.01500
C833        C  0.29262435  0.62774382  0.15475450    -0.02700
C834        C  0.28233488  0.67509167  0.16316187     0.07000
C835        C  0.24751125  0.68196096  0.16971329    -0.02800
C836        C  0.22425945  0.64481438  0.16422950    -0.02800
C837        C  0.23552409  0.59823200  0.15705295     0.07100
C838        C  0.26899112  0.59171543  0.14909694    -0.03000
Br839      Br  0.28077169  0.53847895  0.12350750    -0.01500
Br840      Br  0.33878833  0.60635514  0.15666635    -0.01600
Br841      Br  0.17655285  0.65837799  0.16631541    -0.01600
Br842      Br  0.22953830  0.73641021  0.19117213    -0.01500
C843        C  0.30235442  0.89392464  0.16654478    -0.02700
C844        C  0.29114312  0.84794377  0.15804858     0.07000
C845        C  0.25766433  0.84209215  0.14984720    -0.02800
C846        C  0.23413177  0.87848541  0.15545390    -0.02800
C847        C  0.24449254  0.92575292  0.16349556     0.07100
C848        C  0.27919471  0.93207950  0.17065727    -0.03000
Br849      Br  0.29677998  0.98837797  0.19020880    -0.01500
Br850      Br  0.34981220  0.90453212  0.17319311    -0.01600
Br851      Br  0.18793716  0.85819144  0.15774309    -0.01600
Br852      Br  0.24533239  0.78831093  0.12502192    -0.01500
C853        C  0.27793138  0.92238394  0.35781803    -0.02700
C854        C  0.24278540  0.91599150  0.36205796     0.07000
C855        C  0.23179540  0.86860560  0.36905417    -0.02800
C856        C  0.25491760  0.83192695  0.37590350    -0.02800
C857        C  0.28922248  0.83881583  0.37155395     0.07100
C858        C  0.30075423  0.88557141  0.36566445    -0.03000
Br859      Br  0.34814513  0.90002235  0.36798805    -0.01500
Br860      Br  0.29681264  0.97355853  0.33422875    -0.01600
Br861      Br  0.24045070  0.77675976  0.39835199    -0.01600
Br862      Br  0.18585661  0.84885872  0.36319430    -0.01500
C863        C  0.29525036  0.61896108  0.36788024    -0.02700
C864        C  0.28427670  0.66625954  0.36038669     0.07000
C865        C  0.24935180  0.67264502  0.35449785    -0.02800
C866        C  0.22646360  0.63545949  0.36104175    -0.02800
C867        C  0.23818779  0.58956276  0.36955170     0.07100
C868        C  0.27225105  0.58310245  0.37535094    -0.03000
Br869      Br  0.28661112  0.52966309  0.39964102    -0.01500
Br870      Br  0.34090926  0.59785278  0.36161590    -0.01600
Br871      Br  0.17882136  0.64671058  0.35615681    -0.01600
Br872      Br  0.23156974  0.72515594  0.33105415    -0.01500
C873        C  0.33367767  0.79590477  0.28038133    -0.02700
C874        C  0.34656554  0.75615344  0.29608094     0.07000
C875        C  0.35904603  0.71688813  0.27934551    -0.02800
C876        C  0.35791243  0.71756624  0.24760083    -0.02800
C877        C  0.34431653  0.75747503  0.23205618     0.07100
C878        C  0.33103898  0.79573928  0.24907792    -0.03000
Br879      Br  0.30706909  0.84808678  0.23106590    -0.01500
Br880      Br  0.32161066  0.85335923  0.30103922    -0.01600
Br881      Br  0.37119726  0.66106868  0.22576041    -0.01600
Br882      Br  0.37670839  0.66120455  0.29954141    -0.01500
C883        C  0.44719097  0.76330698  0.42128442    -0.02700
C884        C  0.44330722  0.73593898  0.44753005     0.07000
C885        C  0.41249989  0.71348506  0.45307725    -0.02800
C886        C  0.38506760  0.72149850  0.43382448    -0.02800
C887        C  0.38968107  0.74352822  0.40530142     0.07100
C888        C  0.42055993  0.76807532  0.40060318    -0.03000
Br889      Br  0.42577711  0.81610913  0.36965944    -0.01500
Br890      Br  0.48969394  0.79390105  0.41335169    -0.01600
Br891      Br  0.34104083  0.71409287  0.45139259    -0.01600
Br892      Br  0.40693130  0.67345898  0.48803682    -0.01500
C893        C  0.44703332  0.72761901  0.10730496    -0.02700
C894        C  0.44114340  0.74578673  0.07839884     0.07000
C895        C  0.40881393  0.76137088  0.07055917    -0.02800
C896        C  0.38262897  0.75992378  0.09161975    -0.02800
C897        C  0.38910920  0.74772379  0.12220403     0.07100
C898        C  0.42104164  0.72676179  0.12877366    -0.03000
Br899      Br  0.42857432  0.68646852  0.16329962    -0.01500
Br900      Br  0.49133628  0.70427964  0.11751388    -0.01600
Br901      Br  0.33745882  0.76883017  0.07635069    -0.01600
Br902      Br  0.40008599  0.78350156  0.03026866    -0.01500
C903        C  0.77510896  0.83143615  0.18262073    -0.02700
C904        C  0.74278540  0.83597692  0.16902895     0.07000
C905        C  0.73411351  0.88217018  0.15729722    -0.02800
C906        C  0.75834097  0.91827487  0.15435964    -0.02800
C907        C  0.78869006  0.91506125  0.17005274     0.07100
C908        C  0.79658818  0.87177630  0.18476706    -0.03000
Br909      Br  0.83767588  0.86728555  0.20709405    -0.01500
Br910      Br  0.79278020  0.77120081  0.19720204    -0.01600
Br911      Br  0.75082015  0.96986021  0.12616085    -0.01600
Br912      Br  0.68843992  0.90235412  0.15018820    -0.01500
C913        C  0.72960715  0.62189024  0.18578408    -0.02700
C914        C  0.73665554  0.66567549  0.17148780     0.07000
C915        C  0.76598431  0.66900979  0.15447313    -0.02800
C916        C  0.79018790  0.63217755  0.15550292    -0.02800
C917        C  0.78213225  0.58562307  0.16691837     0.07100
C918        C  0.75054855  0.58115439  0.18167608    -0.03000
Br919      Br  0.73281245  0.52057169  0.19517294    -0.01500
Br920      Br  0.69075171  0.61739479  0.21082630    -0.01600
Br921      Br  0.83525773  0.65196873  0.14631026    -0.01600
Br922      Br  0.77226772  0.72247647  0.12750509    -0.01500
C923        C  0.61932829  0.72577105  0.07419072    -0.02700
C924        C  0.58919942  0.75149129  0.07831668     0.07000
C925        C  0.58668875  0.78421249  0.10227197    -0.02800
C926        C  0.61288540  0.78799413  0.12337105    -0.02800
C927        C  0.64140465  0.75710711  0.12155411     0.07100
C928        C  0.64616250  0.73179322  0.09430598    -0.03000
Br929      Br  0.69059404  0.71507090  0.08039569    -0.01500
Br930      Br  0.62496183  0.68369525  0.04015672    -0.01600
Br931      Br  0.61075517  0.84108863  0.15124421    -0.01600
Br932      Br  0.54672880  0.82312696  0.10698062    -0.01500
C933        C  0.76935536  0.66017917  0.37206549    -0.02700
C934        C  0.73912758  0.65708646  0.35611125     0.07000
C935        C  0.73095112  0.61354209  0.34208897    -0.02800
C936        C  0.75191189  0.57270348  0.34504953    -0.02800
C937        C  0.78397866  0.57654219  0.35917931     0.07100
C938        C  0.79312065  0.62283106  0.37046988    -0.03000
Br939      Br  0.83902957  0.64122479  0.37868904    -0.01500
Br940      Br  0.77724454  0.71360848  0.39875673    -0.01600
Br941      Br  0.73367423  0.51292988  0.33052920    -0.01600
Br942      Br  0.68977304  0.60933411  0.31983149    -0.01500
C943        C  0.73323049  0.87355331  0.37053131    -0.02700
C944        C  0.74180452  0.82713825  0.35888922     0.07000
C945        C  0.77351398  0.82282545  0.34419220    -0.02800
C946        C  0.79467486  0.86321707  0.34115112    -0.02800
C947        C  0.78697389  0.90685300  0.35534397     0.07100
C948        C  0.75721462  0.91036636  0.37184568    -0.03000
Br949      Br  0.75047110  0.96334882  0.39918228    -0.01500
Br950      Br  0.68774188  0.89300563  0.37998527    -0.01600
Br951      Br  0.83581667  0.85821083  0.31893311    -0.01600
Br952      Br  0.79119876  0.76288579  0.32915068    -0.01500
C953        C  0.64849682  0.75684851  0.43769109    -0.02700
C954        C  0.64347871  0.73623875  0.40888349     0.07000
C955        C  0.61389545  0.70871841  0.40470045    -0.02800
C956        C  0.58707004  0.71245320  0.42492457    -0.02800
C957        C  0.59040035  0.74007895  0.45104445     0.07100
C958        C  0.62137018  0.76168923  0.45762730    -0.03000
Br959      Br  0.62736539  0.79576143  0.99492031    -0.01500
Br960      Br  0.69292979  0.76442166  0.45445943    -0.01600
Br961      Br  0.54507590  0.68106269  0.41612272    -0.01600
Br962      Br  0.61136330  0.65939141  0.37453518    -0.01500
C963        C  0.64851998  0.72460403  0.27953058    -0.02700
C964        C  0.66716656  0.75768618  0.29675233     0.07000
C965        C  0.68061437  0.79799074  0.28211902    -0.02800
C966        C  0.68234860  0.79961659  0.25078759    -0.02800
C967        C  0.66867564  0.76227276  0.23354065     0.07100
C968        C  0.64873800  0.72741918  0.24795072    -0.03000
Br969      Br  0.62105296  0.68409862  0.22505951    -0.01500
Br970      Br  0.62161767  0.67649974  0.29845629    -0.01600
Br971      Br  0.70138267  0.85515442  0.23176686    -0.01600
Br972      Br  0.69245011  0.85420050  0.30435667    -0.01500
C973        C  0.66933829  0.74046788  0.88328676     0.85700
C974        C  0.69492878  0.78196382  0.88518648    -0.54600
C975        C  0.71752085  0.78503291  0.86208737     0.08600
C976        C  0.71254583  0.74323334  0.83946267     0.19500
C977        C  0.65345028  0.74802598  0.85190528    -0.55300
C978        C  0.67591907  0.74861201  0.82894097     0.08700
C979        C  0.69093664  0.69547827  0.88086121    -0.54800
C980        C  0.71378060  0.69640289  0.85845823     0.09300
H981        H  0.69460999  0.80776944  0.90297747     0.13800
H982        H  0.72923119  0.74279315  0.81991646    -0.00500
H983        H  0.62684372  0.75380797  0.84829660     0.14100
H984        H  0.68920245  0.66571096  0.89653247     0.13900
C985        C  0.66758748  0.75394929  0.64704607     0.85700
C986        C  0.68701801  0.70624755  0.64945453    -0.54600
C987        C  0.71162982  0.70580991  0.67061476     0.08600
C988        C  0.71286688  0.75278458  0.68946017     0.19500
C989        C  0.65330431  0.75954742  0.67888582    -0.55300
C990        C  0.67678074  0.75908202  0.70104166     0.08700
C991        C  0.69478131  0.79232265  0.64392262    -0.54800
C992        C  0.71787453  0.79453609  0.66666718     0.09300
H993        H  0.68220839  0.67517670  0.63549458     0.13800
H994        H  0.73059210  0.75127562  0.70836923    -0.00500
H995        H  0.62677483  0.76173490  0.68372852     0.14100
H996        H  0.69548827  0.81577731  0.62455336     0.13900
O997        O  0.55121724  0.70708128  0.54754482    -0.73800
O998        O  0.48097732  0.69891649  0.98273563    -0.74700
O999        O  0.55221737  0.70203279  0.98422079    -0.63400
O1000       O  0.47994071  0.70444593  0.54677670    -0.71800
O1001       O  0.47851389  0.78399241  0.54420936    -0.71300
O1002       O  0.55055296  0.78156280  0.98135782    -0.62600
O1003       O  0.47944281  0.77842980  0.98056502    -0.75100
O1004       O  0.54992221  0.78648335  0.54433637    -0.73900
Cu1005     Cu  0.51609640  0.70030937  0.51541442     1.04600
Cu1006     Cu  0.51447462  0.78534026  0.51254632     1.04300
C1007       C  0.56200532  0.74812390  0.55580470     0.92400
C1008       C  0.46929400  0.73759787  0.97129459     0.91600
C1009       C  0.56296490  0.74135810  0.97316646     0.83700
C1010       C  0.46795637  0.74472022  0.55547434     0.90000
C1011       C  0.36045203  0.74676326  0.88244157     0.85700
C1012       C  0.33563643  0.70461907  0.88285887    -0.54600
C1013       C  0.30895785  0.70766474  0.86337518     0.08600
C1014       C  0.30964359  0.75587356  0.84581409     0.19500
C1015       C  0.37011791  0.74868020  0.84882546    -0.55300
C1016       C  0.34366651  0.75455006  0.82965516     0.08700
C1017       C  0.33883488  0.79095362  0.88849523    -0.54800
C1018       C  0.31233327  0.79641317  0.86973583     0.09300
H1019       H  0.33950986  0.67400013  0.89725267     0.13800
H1020       H  0.28955500  0.76218046  0.82953942    -0.00500
H1021       H  0.39535841  0.74324623  0.84061597     0.14100
H1022       H  0.34400486  0.81583238  0.90660530     0.13900
C1023       C  0.36073938  0.75379766  0.64574633     0.85700
C1024       C  0.34114610  0.80082390  0.64191935    -0.54600
C1025       C  0.31366307  0.80498806  0.65952419     0.08600
C1026       C  0.30903301  0.76177166  0.68129176     0.19500
C1027       C  0.36952458  0.75477657  0.67974898    -0.55300
C1028       C  0.34231144  0.75792326  0.69836017     0.08700
C1029       C  0.33428965  0.71433432  0.64224148    -0.54800
C1030       C  0.30775608  0.71589337  0.66168897     0.09300
H1031       H  0.34833507  0.82881554  0.62630574     0.13800
H1032       H  0.28857387  0.76664765  0.69714950    -0.00500
H1033       H  0.39466281  0.75653837  0.68873335     0.14100
H1034       H  0.33654968  0.68750808  0.62479980     0.13900
C1035       C  0.85733474  0.48940225  0.88149395     0.85700
C1036       C  0.83605104  0.94438849  0.87910986    -0.54600
C1037       C  0.81244208  0.94579991  0.85721146     0.08600
C1038       C  0.81283135  0.49300205  0.83851110     0.19500
C1039       C  0.87226334  0.49758229  0.84986522    -0.55300
C1040       C  0.84909127  0.49863920  0.82725168     0.08700
C1041       C  0.83155347  0.53074494  0.88423304    -0.54800
C1042       C  0.80834871  0.53428243  0.86158682     0.09300
H1043       H  0.83842190  0.91439114  0.89457139     0.13800
H1044       H  0.79546547  0.49298327  0.81934322    -0.00500
H1045       H  0.89872634  0.50337726  0.84585403     0.14100
H1046       H  0.83212003  0.55600329  0.90241147     0.13900
C1047       C  0.85734636  0.00243108  0.64445280     0.85700
C1048       C  0.83020158  0.54146055  0.64139009    -0.54600
C1049       C  0.80722139  0.54399843  0.66415703     0.08600
C1050       C  0.81242812  0.00219953  0.68694335     0.19500
C1051       C  0.87182468  0.00758065  0.67640509    -0.55300
C1052       C  0.84853055  0.50785766  0.69860692     0.08700
C1053       C  0.83766216  0.95517794  0.64679863    -0.54800
C1054       C  0.81332276  0.95525811  0.66811031     0.09300
H1055       H  0.82937820  0.56484256  0.62199751     0.13800
H1056       H  0.79494438  0.00095617  0.70591416    -0.00500
H1057       H  0.89838828  0.00957219  0.68118037     0.14100
H1058       H  0.84240921  0.92378711  0.63310919     0.13900
O1059       O  0.97562139  0.53879085  0.54351743    -0.73800
O1060       O  0.04615733  0.53559458  0.97939386    -0.74700
O1061       O  0.97472080  0.53521868  0.98025171    -0.63400
O1062       O  0.04712631  0.53944819  0.54324228    -0.71800
O1063       O  0.04777830  0.95982555  0.54479524    -0.71300
O1064       O  0.97550523  0.95561762  0.98253533    -0.62600
O1065       O  0.04678590  0.95602750  0.98106376    -0.75100
O1066       O  0.97658918  0.95932584  0.54588850    -0.73900
Cu1067     Cu  0.01094908  0.54006453  0.51155174     1.04600
Cu1068     Cu  0.01172657  0.95496835  0.51362878     1.04300
C1069       C  0.96466060  0.49961044  0.55459885     0.92400
C1070       C  0.05759167  0.49536339  0.97004575     0.91600
C1071       C  0.96356751  0.49454027  0.97170869     0.83700
C1072       C  0.05878902  0.50022253  0.55396083     0.90000
C1073       C  0.16681482  0.00004569  0.88148532     0.85700
C1074       C  0.18895233  0.54345931  0.88717193    -0.54600
C1075       C  0.21562118  0.54701535  0.86870852     0.08600
C1076       C  0.21822221  0.00531059  0.84556989     0.19500
C1077       C  0.15765396  0.00165588  0.84758791    -0.55300
C1078       C  0.18458370  0.50531575  0.82867614     0.08700
C1079       C  0.19090161  0.95660223  0.88278178    -0.54800
C1080       C  0.21794935  0.95783896  0.86380706     0.09300
H1081       H  0.18363255  0.56990667  0.90438620     0.13800
H1082       H  0.23874813  0.00941125  0.82972507    -0.00500
H1083       H  0.13235901  0.99801938  0.83907403     0.14100
H1084       H  0.18646560  0.92678252  0.89769979     0.13900
C1085       C  0.16661339  0.50471495  0.64354570     0.85700
C1086       C  0.19332901  0.96524399  0.64081447    -0.54600
C1087       C  0.21913201  0.96680417  0.66118794     0.08600
C1088       C  0.21685978  0.51269735  0.68084465     0.19500
C1089       C  0.15640011  0.50546932  0.67719360    -0.55300
C1090       C  0.18280447  0.00878990  0.69681898     0.09500
C1091       C  0.18602947  0.55162486  0.64037627    -0.54800
C1092       C  0.21286388  0.55578385  0.65873341     0.09300
H1093       H  0.19168058  0.93813778  0.62346065     0.13800
H1094       H  0.23682894  0.51761984  0.69740920    -0.00500
H1095       H  0.13075309  0.50593665  0.68499722     0.14100
H1096       H  0.17927163  0.57965428  0.62456165     0.13900
C1097       C  0.19720630  0.54410459  0.77848553    -0.02700
C1098       C  0.18217344  0.50659033  0.79486162     0.07000
C1099       C  0.16642379  0.96940148  0.77844605    -0.02800
C1100       C  0.16607899  0.97004685  0.74660810    -0.02800
C1101       C  0.17979687  0.00914048  0.73057154     0.07100
C1102       C  0.19430675  0.54662506  0.74721572    -0.03000
Br1103     Br  0.20936223  0.60401435  0.72816599    -0.01500
Br1104     Br  0.22404779  0.59230204  0.79724670    -0.01600
Br1105     Br  0.14933037  0.91514763  0.72532962    -0.01600
Br1106     Br  0.14832913  0.91471073  0.79917375    -0.01500
C1107       C  0.14282462  0.98000607  0.93380127    -0.02700
C1108       C  0.13769660  0.99909786  0.90446750     0.07000
C1109       C  0.10681353  0.52382133  0.89929799    -0.02800
C1110       C  0.08013004  0.52009424  0.91990925    -0.02800
C1111       C  0.08431857  0.49475201  0.94694333     0.07100
C1112       C  0.11571455  0.97424116  0.95359797    -0.03000
Br1113     Br  0.12241551  0.94020647  0.99087373    -0.01500
Br1114     Br  0.18728341  0.97245304  0.95083901    -0.01600
Br1115     Br  0.03723796  0.54923940  0.91078634    -0.01600
Br1116     Br  0.10206693  0.57158115  0.86814839    -0.01500
C1117       C  0.11709269  0.52062090  0.56961848    -0.02700
C1118       C  0.08574073  0.50109387  0.57675984     0.07000
C1119       C  0.08161514  0.97710649  0.60421734    -0.02800
C1120       C  0.10819850  0.97473220  0.62508879    -0.02800
C1121       C  0.13877785  0.49920305  0.61952023     0.07100
C1122       C  0.14408286  0.51615567  0.58976764    -0.03000
Br1123     Br  0.18872172  0.52518131  0.57374606    -0.01500
Br1124     Br  0.12357919  0.55252307  0.53167288    -0.01600
Br1125     Br  0.10409064  0.92868147  0.65703622    -0.01600
Br1126     Br  0.03888636  0.94842734  0.61362967    -0.01500
C1127       C  0.93869057  0.53349719  0.60121863    -0.02700
C1128       C  0.93724938  0.50114678  0.57702020     0.07000
C1129       C  0.90781211  0.97428552  0.57242432    -0.02800
C1130       C  0.88043977  0.97921793  0.59210072    -0.02800
C1131       C  0.88386171  0.00544623  0.61923357     0.07100
C1132       C  0.91182150  0.53696603  0.62154725    -0.03000
Br1133     Br  0.91238218  0.59035151  0.64926658    -0.01500
Br1134     Br  0.97833346  0.57196650  0.60756066    -0.01600
Br1135     Br  0.83685817  0.96017257  0.57732276    -0.01600
Br1136     Br  0.90392536  0.93212715  0.53821682    -0.01500
C1137       C  0.87759391  0.50443349  0.93602523    -0.02700
C1138       C  0.88349700  0.48546935  0.90697908     0.07000
C1139       C  0.91391684  0.95975011  0.90274955    -0.02800
C1140       C  0.94053244  0.96455532  0.92324883    -0.02800
C1141       C  0.93628831  0.49199730  0.94939486     0.07100
C1142       C  0.90449272  0.51121375  0.95602568    -0.03000
Br1143     Br  0.89699341  0.54423405  0.99343477    -0.01500
Br1144     Br  0.83289191  0.50619330  0.95265526    -0.01600
Br1145     Br  0.98320702  0.93424678  0.91505405    -0.01600
Br1146     Br  0.91761754  0.91062765  0.87261672    -0.01500
C1147       C  0.84226423  0.54677833  0.77969440    -0.02700
C1148       C  0.85694816  0.50738944  0.79476072     0.07000
C1149       C  0.87678170  0.97514531  0.77781567    -0.02800
C1150       C  0.87709858  0.97789499  0.74619249    -0.02800
C1151       C  0.85655454  0.51184098  0.73127089     0.07100
C1152       C  0.84159046  0.54858606  0.74827707    -0.03000
Br1153     Br  0.82278666  0.60422060  0.72881475    -0.01500
Br1154     Br  0.82646189  0.60165274  0.80141392    -0.01600
Br1155     Br  0.90648898  0.93580355  0.72400156    -0.01600
Br1156     Br  0.90391965  0.92723113  0.79715023    -0.01500
C1157       C  0.29264157  0.62773618  0.65472781    -0.02700
C1158       C  0.28235024  0.67508253  0.66313552     0.07000
C1159       C  0.24752616  0.68195000  0.66968870    -0.02800
C1160       C  0.22427699  0.64479678  0.66421409    -0.02800
C1161       C  0.23554480  0.59821798  0.65703326     0.07100
C1162       C  0.26900968  0.59170763  0.64906924    -0.03000
Br1163     Br  0.28078761  0.53848198  0.62347019    -0.01500
Br1164     Br  0.33880551  0.60634784  0.65664641    -0.01600
Br1165     Br  0.17656858  0.65833783  0.66633108    -0.01600
Br1166     Br  0.22954674  0.73641095  0.69113246    -0.01500
C1167       C  0.30237726  0.89390768  0.66653822    -0.02700
C1168       C  0.29116623  0.84793104  0.65803357     0.07000
C1169       C  0.25769099  0.84208390  0.64982081    -0.02800
C1170       C  0.23415766  0.87847514  0.65542748    -0.02800
C1171       C  0.24451753  0.92574175  0.66347281     0.07100
C1172       C  0.27921933  0.93206811  0.67063855    -0.03000
Br1173     Br  0.29680936  0.98838204  0.69016927    -0.01500
Br1174     Br  0.34983123  0.90449442  0.67322391    -0.01600
Br1175     Br  0.18796387  0.85817564  0.65771334    -0.01600
Br1176     Br  0.24536581  0.78830903  0.62498709    -0.01500
C1177       C  0.27791815  0.92239330  0.85779654    -0.02700
C1178       C  0.24277336  0.91600434  0.86204551     0.07000
C1179       C  0.23178506  0.86862085  0.86905039    -0.02800
C1180       C  0.25490804  0.83194732  0.87590748    -0.02800
C1181       C  0.28921191  0.83883206  0.87155082     0.07100
C1182       C  0.30074314  0.88558340  0.86564576    -0.03000
Br1183     Br  0.34813816  0.90001973  0.86793088    -0.01500
Br1184     Br  0.29678851  0.97354707  0.83418245    -0.01600
Br1185     Br  0.24044427  0.77679682  0.89837335    -0.01600
Br1186     Br  0.18584893  0.84886469  0.86318546    -0.01500
C1187       C  0.29524225  0.61897030  0.86786933    -0.02700
C1188       C  0.28426464  0.66627301  0.86039238     0.07000
C1189       C  0.24933636  0.67266645  0.85452833    -0.02800
C1190       C  0.22645025  0.63548516  0.86108511    -0.02800
C1191       C  0.23817794  0.58957563  0.86956578     0.07100
C1192       C  0.27224645  0.58310511  0.87533889    -0.03000
Br1193     Br  0.28662177  0.52964312  0.89960186    -0.01500
Br1194     Br  0.34090081  0.59787545  0.86158760    -0.01600
Br1195     Br  0.17880461  0.64676702  0.85625603    -0.01600
Br1196     Br  0.23154456  0.72517452  0.83108804    -0.01500
C1197       C  0.33362104  0.79587484  0.78036908    -0.02700
C1198       C  0.34654515  0.75615289  0.79607507     0.07000
C1199       C  0.35906268  0.71690528  0.77934406    -0.02800
C1200       C  0.35793377  0.71757392  0.74759876    -0.02800
C1201       C  0.34431238  0.75745934  0.73204785     0.07100
C1202       C  0.33099565  0.79570268  0.74906481    -0.03000
Br1203     Br  0.30699196  0.84801622  0.73104667    -0.01500
Br1204     Br  0.32147513  0.85330315  0.80101867    -0.01600
Br1205     Br  0.37125613  0.66108540  0.72576591    -0.01600
Br1206     Br  0.37676431  0.66125083  0.79954516    -0.01500
C1207       C  0.44718231  0.76330692  0.92128148    -0.02700
C1208       C  0.44329398  0.73594076  0.94752744     0.07000
C1209       C  0.41248430  0.71349332  0.95307327    -0.02800
C1210       C  0.38505371  0.72151499  0.93382031    -0.02800
C1211       C  0.38967085  0.74354111  0.90529669     0.07100
C1212       C  0.42055339  0.76807863  0.90059806    -0.03000
Br1213     Br  0.42577945  0.81610454  0.86965101    -0.01500
Br1214     Br  0.48968839  0.79389461  0.91335209    -0.01600
Br1215     Br  0.34102542  0.71412353  0.95138790    -0.01600
Br1216     Br  0.40691052  0.67346338  0.98803035    -0.01500
C1217       C  0.44705660  0.72762081  0.60730139    -0.02700
C1218       C  0.44116658  0.74579132  0.57839621     0.07000
C1219       C  0.40883796  0.76137658  0.57055594    -0.02800
C1220       C  0.38265262  0.75992621  0.59161534    -0.02800
C1221       C  0.38913193  0.74771941  0.62219907     0.07100
C1222       C  0.42106464  0.72675966  0.62876918    -0.03000
Br1223     Br  0.42859864  0.68646603  0.66329432    -0.01500
Br1224     Br  0.49136017  0.70428293  0.61750991    -0.01600
Br1225     Br  0.33748380  0.76884364  0.57634463    -0.01600
Br1226     Br  0.40011202  0.78351294  0.53026598    -0.01500
C1227       C  0.77512369  0.83142462  0.68263208    -0.02700
C1228       C  0.74280091  0.83596480  0.66903838     0.07000
C1229       C  0.73412984  0.88215809  0.65730620    -0.02800
C1230       C  0.75835705  0.91826345  0.65436994    -0.02800
C1231       C  0.78870597  0.91504933  0.67006318     0.07100
C1232       C  0.79660357  0.87176453  0.68477799    -0.03000
Br1233     Br  0.83769143  0.86727439  0.70710520    -0.01500
Br1234     Br  0.79279239  0.77119038  0.69721755    -0.01600
Br1235     Br  0.75083522  0.96985311  0.62617418    -0.01600
Br1236     Br  0.68845697  0.90234181  0.65019529    -0.01500
C1237       C  0.72961982  0.62187744  0.68579419    -0.02700
C1238       C  0.73666832  0.66566324  0.67149839     0.07000
C1239       C  0.76599689  0.66899797  0.65448355    -0.02800
C1240       C  0.79019987  0.63216504  0.65551169    -0.02800
C1241       C  0.78214478  0.58561066  0.66692753     0.07100
C1242       C  0.75056209  0.58114207  0.68168706    -0.03000
Br1243     Br  0.73282929  0.52055996  0.69518887    -0.01500
Br1244     Br  0.69076214  0.61738018  0.71083353    -0.01600
Br1245     Br  0.83526889  0.65195552  0.64631604    -0.01600
Br1246     Br  0.77228081  0.72246650  0.62751694    -0.01500
C1247       C  0.61934372  0.72576053  0.57419328    -0.02700
C1248       C  0.58921977  0.75149466  0.57831465     0.07000
C1249       C  0.58671355  0.78422110  0.60226755    -0.02800
C1250       C  0.61290819  0.78799372  0.62336953    -0.02800
C1251       C  0.64142209  0.75709519  0.62155714     0.07100
C1252       C  0.64617699  0.73177302  0.59431109    -0.03000
Br1253     Br  0.69060556  0.71502421  0.58040488    -0.01500
Br1254     Br  0.62497288  0.68368144  0.54015993    -0.01600
Br1255     Br  0.61078066  0.84108643  0.65124419    -0.01600
Br1256     Br  0.54676207  0.82315586  0.60696922    -0.01500
C1257       C  0.76935181  0.66018359  0.87206869    -0.02700
C1258       C  0.73912160  0.65709083  0.85611821     0.07000
C1259       C  0.73094430  0.61354748  0.84209498    -0.02800
C1260       C  0.75190895  0.57271132  0.84504778    -0.02800
C1261       C  0.78397718  0.57655045  0.85917492     0.07100
C1262       C  0.79311862  0.62283814  0.87046739    -0.03000
Br1263     Br  0.83902822  0.64123369  0.87868185    -0.01500
Br1264     Br  0.77724109  0.71360601  0.89876521    -0.01600
Br1265     Br  0.73367537  0.51294045  0.83051894    -0.01600
Br1266     Br  0.68975788  0.60933558  0.81985012    -0.01500
C1267       C  0.73322135  0.87356144  0.87053632    -0.02700
C1268       C  0.74179665  0.82714489  0.85889723     0.07000
C1269       C  0.77350577  0.82283226  0.84419952    -0.02800
C1270       C  0.79466422  0.86322537  0.84115356    -0.02800
C1271       C  0.78696303  0.90686286  0.85534416     0.07100
C1272       C  0.75720407  0.91037730  0.87184654    -0.03000
Br1273     Br  0.75045880  0.96336671  0.89917758    -0.01500
Br1274     Br  0.68773269  0.89301002  0.87999242    -0.01600
Br1275     Br  0.83580294  0.85822009  0.81893087    -0.01600
Br1276     Br  0.79119474  0.76289075  0.82916502    -0.01500
C1277       C  0.64848472  0.75684747  0.93769746    -0.02700
C1278       C  0.64346846  0.73624085  0.90888884     0.07000
C1279       C  0.61388517  0.70872125  0.90470372    -0.02800
C1280       C  0.58705801  0.71245532  0.92492641    -0.02800
C1281       C  0.59038667  0.74007783  0.95104794     0.07100
C1282       C  0.62135678  0.76168645  0.95763283    -0.03000
Br1283     Br  0.62738037  0.79576686  0.49491384    -0.01500
Br1284     Br  0.69291709  0.76441834  0.95446728    -0.01600
Br1285     Br  0.54506375  0.68106867  0.91611993    -0.01600
Br1286     Br  0.61135601  0.65939399  0.87453852    -0.01500
C1287       C  0.64852066  0.72460479  0.77953564    -0.02700
C1288       C  0.66716484  0.75768865  0.79675815     0.07000
C1289       C  0.68061492  0.79799133  0.78212449    -0.02800
C1290       C  0.68235436  0.79961294  0.75079309    -0.02800
C1291       C  0.66868402  0.76226700  0.73354611     0.07100
C1292       C  0.64874446  0.72741498  0.74795558    -0.03000
Br1293     Br  0.62106500  0.68408903  0.72506306    -0.01500
Br1294     Br  0.62161201  0.67650697  0.79846046    -0.01600
Br1295     Br  0.70139230  0.85514771  0.73177226    -0.01600
Br1296     Br  0.69244517  0.85420468  0.80436115    -0.01500
loop_ 
_geom_bond_atom_site_label_1 
_geom_bond_atom_site_label_2 
_geom_bond_distance 
_geom_bond_site_symmetry_2 
_ccdc_geom_bond_type 
C1            C2   1.549       .  S
C1            C7   1.522       .  S
C1            C5   1.552       .  S
C1          C306   1.549       .  S
C2            H9   1.072       .  S
C2            C3   1.376       .  D
C3            C4   1.555       .  S
C3          C296   1.532       .  S
C4            C8   1.557       .  S
C4            C6   1.541       .  S
C4           H10   1.100       .  S
C5           H11   1.085       .  S
C5            C6   1.365       .  D
C6          C316   1.500       .  S
C7           H12   1.088       .  S
C7            C8   1.357       .  D
C8          C286   1.492       .  S
C13          C14   1.539       .  S
C13          C19   1.534       .  S
C13          C17   1.542       .  S
C13         C279   1.546       .  S
C14          H21   1.085       .  S
C14          C15   1.362       .  D
C15          C16   1.557       .  S
C15         C266   1.497       .  S
C16          C20   1.560       .  S
C16          C18   1.542       .  S
C16          H22   1.101       .  S
C17          H23   1.083       .  S
C17          C18   1.362       .  D
C18         C319   1.492       .  S
C19          H24   1.085       .  S
C19          C20   1.372       .  D
C20         C256   1.531       .  S
O25         Cu33   2.014       .  S
O25          C35   1.278       .  A
O26        Cu357   2.022       .  S
O26          C36   1.279       .  A
O27        Cu357   2.010       .  S
O27          C37   1.278       .  A
O28         Cu33   2.018       .  S
O28          C38   1.279       .  A
O29         Cu34   2.019       .  S
O29          C38   1.278       .  A
O30        Cu358   2.010       .  S
O30          C37   1.277       .  A
O31        Cu358   2.006       .  S
O31          C36   1.278       .  A
O32         Cu34   2.003       .  S
O32          C35   1.277       .  A
Cu33        O350   2.022   1_554  S
Cu33        O351   2.010   1_554  S
Cu33        Cu34   2.373       .  S
Cu34        O354   2.010   1_554  S
Cu34        O355   2.006   1_554  S
C35         C276   1.482       .  S
C36         C236   1.484       .  S
C37         C309   1.477       .  S
C38         C246   1.483       .  S
C39          C40   1.540       .  S
C39          C45   1.525       .  S
C39          C43   1.553       .  S
C39         C239   1.551       .  S
C40          H47   1.079       .  S
C40          C41   1.376       .  D
C41          C42   1.556       .  S
C41         C216   1.526       .  S
C42          C46   1.559       .  S
C42          C44   1.541       .  S
C42          H48   1.095       .  S
C43          H49   1.083       .  S
C43          C44   1.367       .  D
C44         C226   1.506       .  S
C45          H50   1.086       .  S
C45          C46   1.356       .  D
C46         C209   1.499       .  S
C51          C52   1.532       .  S
C51          C57   1.536       .  S
C51          C55   1.559       .  S
C51         C249   1.558       .  S
C52          H59   1.087       .  S
C52          C53   1.357       .  D
C53          C54   1.560       .  S
C53         C196   1.494       .  S
C54          C58   1.551       .  S
C54          C56   1.533       .  S
C54          H60   1.091       .  S
C55          H61   1.081       .  S
C55          C56   1.373       .  D
C56         C229   1.508       .  S
C57          H62   1.084       .  S
C57          C58   1.373       .  D
C58         C186   1.529       .  S
C63          C69   1.546   1_565  S
C63          C67   1.553       .  S
C63         C712   1.522       .  S
C63         C166   1.547       .  S
C64         C711   1.522       .  S
C64          H71   1.088       .  S
C64          C65   1.357       .  D
C65         C714   1.559       .  S
C65         C299   1.493       .  S
C66          C70   1.555   1_565  S
C66          C68   1.543       .  S
C66         C713   1.559       .  S
C66          H72   1.101       .  S
C67          H73   1.085   1_565  S
C67          C68   1.368       .  D
C68         C176   1.507   1_565  S
C69          H74   1.075       .  S
C69          C70   1.373       .  D
C70         C289   1.528       .  S
C75          C81   1.540       .  S
C75          C79   1.546       .  S
C75         C724   1.538       .  S
C75         C159   1.551       .  S
C76         C723   1.538       .  S
C76          H83   1.085       .  S
C76          C77   1.374       .  D
C77         C726   1.560       .  S
C77         C269   1.534       .  S
C78          C82   1.556       .  S
C78         C725   1.560       .  S
C78         C728   1.540       .  S
C78          H84   1.100       .  S
C79          H85   1.083       .  S
C79         C728   1.362       .  D
C80         C726   1.540       .  S
C80         C727   1.362       .  D
C80         C179   1.498       .  S
C81          H86   1.084       .  S
C81          C82   1.363       .  D
C82         C259   1.496       .  S
O87         Cu95   2.011   1_655  S
O87          C97   1.278   1_545  A
O88        Cu419   2.017       .  S
O88          C98   1.279   1_545  A
O89        Cu419   2.014   1_655  S
O89          C99   1.278   1_545  A
O90         Cu95   2.020       .  S
O90         C100   1.279       .  A
O91         Cu96   2.005       .  S
O91         C748   1.277       .  A
O92        Cu420   2.003   1_655  S
O92         C747   1.277       .  A
O93        Cu420   2.023       .  S
O93         C746   1.279       .  A
O94         Cu96   2.018   1_655  S
O94         C745   1.278       .  A
Cu95        O412   2.017   1_554  S
Cu95        O413   2.014   1_454  S
Cu95       Cu744   2.373   1_545  S
Cu96        O416   2.003   1_454  S
Cu96        O417   2.023   1_554  S
Cu96       Cu743   2.373       .  S
C97         O742   1.278       .  A
C97         C156   1.486   1_565  S
C98         O741   1.279       .  A
C98         C139   1.487       .  S
C99         O740   1.277       .  A
C99         C169   1.477       .  S
C100        O739   1.277   1_545  A
C100        C146   1.480       .  S
C101        C107   1.543       .  S
C101        C105   1.558       .  S
C101        C750   1.522       .  S
C101        C136   1.554       .  S
C102        C749   1.522       .  S
C102        H109   1.086       .  S
C102        C103   1.353       .  D
C103        C752   1.559       .  S
C103        C219   1.493       .  S
C104        C108   1.554       .  S
C104        C751   1.559       .  S
C104        C754   1.539       .  S
C104        H110   1.091       .  S
C105        H111   1.083       .  S
C105        C754   1.374       .  D
C106        C752   1.539       .  S
C106        C753   1.374       .  D
C106        C126   1.514       .  S
C107        H112   1.081       .  S
C107        C108   1.376       .  D
C108        C206   1.529       .  S
C113        C119   1.530       .  S
C113        C117   1.559       .  S
C113        C762   1.534   1_545  S
C113        C149   1.551   1_545  S
C114        C761   1.534       .  S
C114        H121   1.085       .  S
C114        C115   1.374       .  D
C115        C764   1.554       .  S
C115        C199   1.528       .  S
C116        C120   1.562       .  S
C116        C763   1.554   1_545  S
C116        C766   1.542       .  S
C116        H122   1.096       .  S
C117        H123   1.083       .  S
C117        C766   1.373       .  D
C118        C764   1.542       .  S
C118        C765   1.373       .  D
C118        C129   1.514       .  S
C119        H124   1.086       .  S
C119        C120   1.353       .  D
C120        C189   1.495       .  S
C125        C126   1.413       .  A
C125        C130   1.404       .  A
C125       Br132   1.914       .  S
C126        C775   1.418   1_545  A
C127        C128   1.423       .  A
C127        C774   1.418       .  A
C127       Br134   1.928       .  S
C128        C129   1.417       .  A
C128       Br133   1.923       .  S
C129        C778   1.408       .  A
C130        C777   1.408       .  A
C130       Br131   1.912       .  S
C135        C136   1.429       .  A
C135        C140   1.410       .  A
C135       Br142   1.940       .  S
C136        C785   1.428       .  A
C137        C138   1.415       .  A
C137        C784   1.428   1_545  A
C137       Br144   1.934       .  S
C138        C139   1.409   1_545  A
C138       Br143   1.934       .  S
C139        C788   1.406       .  A
C140        C787   1.406       .  A
C140       Br141   1.934       .  S
C145        C146   1.405       .  A
C145        C150   1.407       .  A
C145       Br152   1.933       .  S
C146        C795   1.408   1_545  A
C147        C148   1.412       .  A
C147        C794   1.408       .  A
C147       Br154   1.935       .  S
C148        C797   1.424       .  A
C148       Br153   1.928       .  S
C149        C150   1.428   1_565  A
C149        C796   1.424       .  A
C150       Br151   1.940       .  S
C155        C156   1.409       .  A
C155        C160   1.411       .  A
C155       Br162   1.936       .  S
C156        C805   1.411   1_545  A
C157        C158   1.411       .  A
C157        C804   1.411       .  A
C157       Br164   1.934       .  S
C158        C159   1.422       .  A
C158       Br163   1.936       .  S
C159        C808   1.427       .  A
C160        C807   1.427       .  A
C160       Br161   1.936       .  S
C165        C166   1.422   1_545  A
C165        C170   1.409       .  A
C165       Br172   1.936       .  S
C166        C815   1.420       .  A
C167        C168   1.408       .  A
C167        C814   1.420       .  A
C167       Br174   1.926       .  S
C168        C817   1.407       .  A
C168       Br173   1.934       .  S
C169        C170   1.408   1_565  A
C169        C816   1.407       .  A
C170       Br171   1.932       .  S
C175        C176   1.412       .  A
C175        C180   1.405       .  A
C175       Br182   1.916       .  S
C176        C825   1.416   1_545  A
C177        C178   1.416       .  A
C177        C824   1.416       .  A
C177       Br184   1.919       .  S
C178        C827   1.415       .  A
C178       Br183   1.931       .  S
C179        C180   1.407       .  A
C179        C826   1.415   1_545  A
C180       Br181   1.926       .  S
C185        C186   1.430       .  A
C185        C190   1.403       .  A
C185       Br192   1.936       .  S
C186        C187   1.434       .  A
C187        C188   1.414       .  A
C187       Br194   1.931       .  S
C188        C189   1.409       .  A
C188       Br193   1.943       .  S
C189        C190   1.395       .  A
C190       Br191   1.930       .  S
C195        C196   1.411       .  A
C195        C200   1.418       .  A
C195       Br202   1.941       .  S
C196        C197   1.395       .  A
C197        C198   1.402       .  A
C197       Br204   1.929       .  S
C198        C199   1.428       .  A
C198       Br203   1.935       .  S
C199        C200   1.433       .  A
C200       Br201   1.930       .  S
C205        C206   1.428       .  A
C205        C210   1.412       .  A
C205       Br212   1.931       .  S
C206        C207   1.428       .  A
C207        C208   1.407       .  A
C207       Br214   1.934       .  S
C208        C209   1.398       .  A
C208       Br213   1.927       .  S
C209        C210   1.409       .  A
C210       Br211   1.939       .  S
C215        C216   1.426       .  A
C215        C220   1.401       .  A
C215       Br222   1.934       .  S
C216        C217   1.429       .  A
C217        C218   1.416       .  A
C217       Br224   1.931       .  S
C218        C219   1.412       .  A
C218       Br223   1.938       .  S
C219        C220   1.395       .  A
C220       Br221   1.927       .  S
C225        C226   1.406       .  A
C225        C230   1.403       .  A
C225       Br232   1.909       .  S
C226        C227   1.415       .  A
C227        C228   1.420       .  A
C227       Br234   1.925       .  S
C228        C229   1.416       .  A
C228       Br233   1.925       .  S
C229        C230   1.412       .  A
C230       Br231   1.917       .  S
C235        C236   1.408       .  A
C235        C240   1.413       .  A
C235       Br242   1.936       .  S
C236        C237   1.405       .  A
C237        C238   1.408       .  A
C237       Br244   1.934       .  S
C238        C239   1.428       .  A
C238       Br243   1.939       .  S
C239        C240   1.429       .  A
C240       Br241   1.937       .  S
C245        C246   1.406       .  A
C245        C250   1.416       .  A
C245       Br252   1.935       .  S
C246        C247   1.403       .  A
C247        C248   1.410       .  A
C247       Br254   1.934       .  S
C248        C249   1.431       .  A
C248       Br253   1.941       .  S
C249        C250   1.430       .  A
C250       Br251   1.930       .  S
C255        C256   1.430       .  A
C255        C260   1.420       .  A
C255       Br262   1.930       .  S
C256        C257   1.431       .  A
C257        C258   1.405       .  A
C257       Br264   1.931       .  S
C258        C259   1.401       .  A
C258       Br263   1.934       .  S
C259        C260   1.408       .  A
C260       Br261   1.921       .  S
C265        C266   1.407       .  A
C265        C270   1.419       .  A
C265       Br272   1.920       .  S
C266        C267   1.402       .  A
C267        C268   1.407       .  A
C267       Br274   1.934       .  S
C268        C269   1.432       .  A
C268       Br273   1.930       .  S
C269        C270   1.431       .  A
C270       Br271   1.931       .  S
C275        C276   1.410       .  A
C275        C280   1.407       .  A
C275       Br282   1.933       .  S
C276        C277   1.410       .  A
C277        C278   1.410       .  A
C277       Br284   1.937       .  S
C278        C279   1.427       .  A
C278       Br283   1.936       .  S
C279        C280   1.420       .  A
C280       Br281   1.936       .  S
C285        C286   1.403       .  A
C285        C290   1.407       .  A
C285       Br292   1.934       .  S
C286        C287   1.405       .  A
C287        C288   1.415       .  A
C287       Br294   1.923       .  S
C288        C289   1.430       .  A
C288       Br293   1.932       .  S
C289        C290   1.433       .  A
C290       Br291   1.940       .  S
C295        C296   1.434       .  A
C295        C300   1.408       .  A
C295       Br302   1.941       .  S
C296        C297   1.433       .  A
C297        C298   1.417       .  A
C297       Br304   1.932       .  S
C298        C299   1.405       .  A
C298       Br303   1.926       .  S
C299        C300   1.403       .  A
C300       Br301   1.935       .  S
C305        C306   1.424       .  A
C305        C310   1.410       .  A
C305       Br312   1.936       .  S
C306        C307   1.423       .  A
C307        C308   1.407       .  A
C307       Br314   1.928       .  S
C308        C309   1.405       .  A
C308       Br313   1.934       .  S
C309        C310   1.408       .  A
C310       Br635   1.933       .  S
Br311       C634   1.933       .  S
C315        C316   1.414       .  A
C315        C320   1.414       .  A
C315       Br322   1.919       .  S
C316        C317   1.409       .  A
C317        C318   1.403       .  A
C317       Br324   1.915       .  S
C318        C319   1.406       .  A
C318       Br323   1.926       .  S
C319        C320   1.415       .  A
C320       Br321   1.932       .  S
C325        C326   1.549       .  S
C325        C331   1.522       .  S
C325        C329   1.552       .  S
C325        C630   1.549       .  S
C326        H333   1.072       .  S
C326        C327   1.376       .  D
C327        C328   1.555       .  S
C327        C620   1.532       .  S
C328        C332   1.557       .  S
C328        C330   1.541       .  S
C328        H334   1.100       .  S
C329        H335   1.085       .  S
C329        C330   1.365       .  D
C330        C640   1.500       .  S
C331        H336   1.088       .  S
C331        C332   1.357       .  D
C332        C610   1.492       .  S
C337        C338   1.539       .  S
C337        C343   1.534       .  S
C337        C341   1.542       .  S
C337        C603   1.546       .  S
C338        H345   1.085       .  S
C338        C339   1.362       .  D
C339        C340   1.557       .  S
C339        C590   1.497       .  S
C340        C344   1.560       .  S
C340        C342   1.542       .  S
C340        H346   1.101       .  S
C341        H347   1.083       .  S
C341        C342   1.362       .  D
C342        C643   1.492       .  S
C343        H348   1.085       .  S
C343        C344   1.372       .  D
C344        C580   1.531       .  S
O349       Cu357   2.014       .  S
O349        C359   1.278       .  A
O350        C360   1.279       .  A
O351        C361   1.278       .  A
O352       Cu357   2.018       .  S
O352        C362   1.279       .  A
O353       Cu358   2.019       .  S
O353        C362   1.278       .  A
O354        C361   1.277       .  A
O355        C360   1.278       .  A
O356       Cu358   2.003       .  S
O356        C359   1.277       .  A
Cu357      Cu358   2.373       .  S
C359        C600   1.482       .  S
C360        C560   1.484       .  S
C361        C633   1.478       .  S
C362        C570   1.483       .  S
C363        C364   1.540       .  S
C363        C369   1.525       .  S
C363        C367   1.553       .  S
C363        C563   1.551       .  S
C364        H371   1.079       .  S
C364        C365   1.376       .  D
C365        C366   1.556       .  S
C365        C540   1.526       .  S
C366        C370   1.559       .  S
C366        C368   1.541       .  S
C366        H372   1.095       .  S
C367        H373   1.083       .  S
C367        C368   1.367       .  D
C368        C550   1.506       .  S
C369        H374   1.086       .  S
C369        C370   1.356       .  D
C370        C533   1.499       .  S
C375        C376   1.532       .  S
C375        C381   1.536       .  S
C375        C379   1.559       .  S
C375        C573   1.558       .  S
C376        H383   1.087       .  S
C376        C377   1.357       .  D
C377        C378   1.560       .  S
C377        C520   1.494       .  S
C378        C382   1.551       .  S
C378        C380   1.533       .  S
C378        H384   1.091       .  S
C379        H385   1.081       .  S
C379        C380   1.373       .  D
C380        C553   1.508       .  S
C381        H386   1.084       .  S
C381        C382   1.373       .  D
C382        C510   1.529       .  S
C387       C1036   1.522       .  S
C387        C393   1.546   1_565  S
C387        C391   1.553       .  S
C387        C490   1.547       .  S
C388       C1035   1.522       .  S
C388        H395   1.088       .  S
C388        C389   1.357       .  D
C389       C1038   1.559       .  S
C389        C623   1.493       .  S
C390       C1037   1.559       .  S
C390        C394   1.555   1_565  S
C390        C392   1.543       .  S
C390        H396   1.101       .  S
C391        H397   1.085   1_565  S
C391        C392   1.368       .  D
C392        C500   1.507   1_565  S
C393        H398   1.075       .  S
C393        C394   1.373       .  D
C394        C613   1.528       .  S
C399       C1048   1.538       .  S
C399        C405   1.540       .  S
C399        C403   1.546       .  S
C399        C483   1.551       .  S
C400       C1047   1.538       .  S
C400        H407   1.085       .  S
C400        C401   1.374       .  D
C401       C1050   1.560       .  S
C401        C593   1.534       .  S
C402       C1049   1.560       .  S
C402        C406   1.556       .  S
C402       C1052   1.540       .  S
C402        H408   1.100       .  S
C403        H409   1.083       .  S
C403       C1052   1.362       .  D
C404       C1050   1.540       .  S
C404       C1051   1.362       .  D
C404        C503   1.498       .  S
C405        H410   1.084       .  S
C405        C406   1.363       .  D
C406        C583   1.496       .  S
O411       Cu419   2.011   1_655  S
O411        C421   1.278   1_545  A
O412        C422   1.279   1_545  A
O413        C423   1.278   1_545  A
O414       Cu419   2.020       .  S
O414        C424   1.279       .  A
O415       Cu420   2.005       .  S
O415       C1072   1.277       .  A
O416       C1071   1.277       .  A
O417       C1070   1.279       .  A
O418       Cu420   2.018   1_655  S
O418       C1069   1.278       .  A
Cu419     Cu1068   2.373   1_545  S
Cu420     Cu1067   2.373       .  S
C421       O1066   1.278       .  A
C421        C480   1.487   1_565  S
C422       O1065   1.279       .  A
C422        C463   1.487       .  S
C423       O1064   1.277       .  A
C423        C493   1.477       .  S
C424       O1063   1.277   1_545  A
C424        C470   1.480       .  S
C425       C1074   1.522       .  S
C425        C431   1.543       .  S
C425        C429   1.558       .  S
C425        C460   1.554       .  S
C426       C1073   1.522       .  S
C426        H433   1.086       .  S
C426        C427   1.353       .  D
C427       C1076   1.559       .  S
C427        C543   1.493       .  S
C428       C1075   1.559       .  S
C428        C432   1.554       .  S
C428       C1078   1.539       .  S
C428        H434   1.091       .  S
C429        H435   1.083       .  S
C429       C1078   1.374       .  D
C430       C1076   1.539       .  S
C430       C1077   1.374       .  D
C430        C450   1.515       .  S
C431        H436   1.081       .  S
C431        C432   1.376       .  D
C432        C530   1.529       .  S
C437       C1086   1.534   1_545  S
C437        C443   1.530       .  S
C437        C441   1.559       .  S
C437        C473   1.551   1_545  S
C438       C1085   1.534       .  S
C438        H445   1.085       .  S
C438        C439   1.374       .  D
C439       C1088   1.554       .  S
C439        C523   1.528       .  S
C440       C1087   1.554   1_545  S
C440        C444   1.562       .  S
C440       C1090   1.542       .  S
C440        H446   1.095       .  S
C441        H447   1.083       .  S
C441       C1090   1.373       .  D
C442       C1088   1.542       .  S
C442       C1089   1.373       .  D
C442        C453   1.514       .  S
C443        H448   1.086       .  S
C443        C444   1.353       .  D
C444        C513   1.495       .  S
C449        C450   1.413       .  A
C449        C454   1.404       .  A
C449       Br456   1.914       .  S
C450       C1099   1.418   1_545  A
C451       C1098   1.418       .  A
C451        C452   1.423       .  A
C451       Br458   1.928       .  S
C452        C453   1.417       .  A
C452       Br457   1.923       .  S
C453       C1102   1.408       .  A
C454       C1101   1.408       .  A
C454       Br455   1.912       .  S
C459        C460   1.429       .  A
C459        C464   1.410       .  A
C459       Br466   1.940       .  S
C460       C1109   1.428       .  A
C461       C1108   1.428   1_545  A
C461        C462   1.415       .  A
C461       Br468   1.934       .  S
C462        C463   1.409   1_545  A
C462       Br467   1.934       .  S
C463       C1112   1.406       .  A
C464       C1111   1.406       .  A
C464       Br465   1.934       .  S
C469        C470   1.405       .  A
C469        C474   1.407       .  A
C469       Br476   1.933       .  S
C470       C1119   1.408   1_545  A
C471       C1118   1.408       .  A
C471        C472   1.412       .  A
C471       Br478   1.935       .  S
C472       C1121   1.424       .  A
C472       Br477   1.928       .  S
C473       C1120   1.424       .  A
C473        C474   1.428   1_565  A
C474       Br475   1.940       .  S
C479        C480   1.409       .  A
C479        C484   1.411       .  A
C479       Br486   1.936       .  S
C480       C1129   1.411   1_545  A
C481       C1128   1.411       .  A
C481        C482   1.411       .  A
C481       Br488   1.934       .  S
C482        C483   1.422       .  A
C482       Br487   1.936       .  S
C483       C1132   1.427       .  A
C484       C1131   1.427       .  A
C484       Br485   1.936       .  S
C489        C490   1.421   1_545  A
C489        C494   1.409       .  A
C489       Br496   1.936       .  S
C490       C1139   1.420       .  A
C491       C1138   1.420       .  A
C491        C492   1.408       .  A
C491       Br498   1.926       .  S
C492       C1141   1.407       .  A
C492       Br497   1.934       .  S
C493       C1140   1.407       .  A
C493        C494   1.408   1_565  A
C494       Br495   1.932       .  S
C499        C500   1.412       .  A
C499        C504   1.405       .  A
C499       Br506   1.916       .  S
C500       C1149   1.416   1_545  A
C501       C1148   1.416       .  A
C501        C502   1.416       .  A
C501       Br508   1.919       .  S
C502       C1151   1.415       .  A
C502       Br507   1.931       .  S
C503       C1150   1.415   1_545  A
C503        C504   1.407       .  A
C504       Br505   1.926       .  S
C509        C510   1.430       .  A
C509        C514   1.403       .  A
C509       Br516   1.936       .  S
C510        C511   1.434       .  A
C511        C512   1.414       .  A
C511       Br518   1.931       .  S
C512        C513   1.409       .  A
C512       Br517   1.943       .  S
C513        C514   1.395       .  A
C514       Br515   1.930       .  S
C519        C520   1.411       .  A
C519        C524   1.418       .  A
C519       Br526   1.941       .  S
C520        C521   1.395       .  A
C521        C522   1.402       .  A
C521       Br528   1.929       .  S
C522        C523   1.428       .  A
C522       Br527   1.935       .  S
C523        C524   1.433       .  A
C524       Br525   1.930       .  S
C529        C530   1.428       .  A
C529        C534   1.412       .  A
C529       Br536   1.931       .  S
C530        C531   1.428       .  A
C531        C532   1.407       .  A
C531       Br538   1.934       .  S
C532        C533   1.398       .  A
C532       Br537   1.927       .  S
C533        C534   1.409       .  A
C534       Br535   1.939       .  S
C539        C540   1.426       .  A
C539        C544   1.401       .  A
C539       Br546   1.934       .  S
C540        C541   1.428       .  A
C541        C542   1.416       .  A
C541       Br548   1.931       .  S
C542        C543   1.412       .  A
C542       Br547   1.938       .  S
C543        C544   1.395       .  A
C544       Br545   1.927       .  S
C549        C550   1.406       .  A
C549        C554   1.403       .  A
C549       Br556   1.909       .  S
C550        C551   1.415       .  A
C551        C552   1.420       .  A
C551       Br558   1.925       .  S
C552        C553   1.416       .  A
C552       Br557   1.926       .  S
C553        C554   1.412       .  A
C554       Br555   1.917       .  S
C559        C560   1.408       .  A
C559        C564   1.413       .  A
C559       Br566   1.936       .  S
C560        C561   1.405       .  A
C561        C562   1.408       .  A
C561       Br568   1.934       .  S
C562        C563   1.428       .  A
C562       Br567   1.939       .  S
C563        C564   1.429       .  A
C564       Br565   1.937       .  S
C569        C570   1.406       .  A
C569        C574   1.416       .  A
C569       Br576   1.935       .  S
C570        C571   1.403       .  A
C571        C572   1.409       .  A
C571       Br578   1.934       .  S
C572        C573   1.431       .  A
C572       Br577   1.941       .  S
C573        C574   1.430       .  A
C574       Br575   1.930       .  S
C579        C580   1.430       .  A
C579        C584   1.420       .  A
C579       Br586   1.930       .  S
C580        C581   1.431       .  A
C581        C582   1.405       .  A
C581       Br588   1.931       .  S
C582        C583   1.401       .  A
C582       Br587   1.934       .  S
C583        C584   1.408       .  A
C584       Br585   1.921       .  S
C589        C590   1.407       .  A
C589        C594   1.419       .  A
C589       Br596   1.920       .  S
C590        C591   1.402       .  A
C591        C592   1.407       .  A
C591       Br598   1.934       .  S
C592        C593   1.432       .  A
C592       Br597   1.930       .  S
C593        C594   1.431       .  A
C594       Br595   1.931       .  S
C599        C600   1.410       .  A
C599        C604   1.407       .  A
C599       Br606   1.933       .  S
C600        C601   1.410       .  A
C601        C602   1.411       .  A
C601       Br608   1.937       .  S
C602        C603   1.427       .  A
C602       Br607   1.936       .  S
C603        C604   1.420       .  A
C604       Br605   1.936       .  S
C609        C610   1.403       .  A
C609        C614   1.407       .  A
C609       Br616   1.934       .  S
C610        C611   1.405       .  A
C611        C612   1.415       .  A
C611       Br618   1.923       .  S
C612        C613   1.430       .  A
C612       Br617   1.932       .  S
C613        C614   1.433       .  A
C614       Br615   1.940       .  S
C619        C620   1.434       .  A
C619        C624   1.408       .  A
C619       Br626   1.941       .  S
C620        C621   1.433       .  A
C621        C622   1.417       .  A
C621       Br628   1.932       .  S
C622        C623   1.405       .  A
C622       Br627   1.926       .  S
C623        C624   1.403       .  A
C624       Br625   1.935       .  S
C629        C630   1.424       .  A
C629        C634   1.410       .  A
C629       Br636   1.936       .  S
C630        C631   1.423       .  A
C631        C632   1.407       .  A
C631       Br638   1.928       .  S
C632        C633   1.405       .  A
C632       Br637   1.934       .  S
C633        C634   1.408       .  A
C639        C640   1.414       .  A
C639        C644   1.414       .  A
C639       Br646   1.919       .  S
C640        C641   1.409       .  A
C641        C642   1.403       .  A
C641       Br648   1.915       .  S
C642        C643   1.406       .  A
C642       Br647   1.926       .  S
C643        C644   1.415       .  A
C644       Br645   1.932       .  S
C649        C650   1.549       .  S
C649        C655   1.522       .  S
C649        C653   1.552       .  S
C649        C954   1.549       .  S
C650        H657   1.072       .  S
C650        C651   1.376       .  D
C651        C652   1.555       .  S
C651        C944   1.532       .  S
C652        C656   1.557       .  S
C652        C654   1.541       .  S
C652        H658   1.100       .  S
C653        H659   1.085       .  S
C653        C654   1.365       .  D
C654        C964   1.500       .  S
C655        H660   1.088       .  S
C655        C656   1.357       .  D
C656        C934   1.492       .  S
C661        C662   1.539       .  S
C661        C667   1.534       .  S
C661        C665   1.542       .  S
C661        C927   1.546       .  S
C662        H669   1.085       .  S
C662        C663   1.362       .  D
C663        C664   1.557       .  S
C663        C914   1.497       .  S
C664        C668   1.560       .  S
C664        C666   1.542       .  S
C664        H670   1.101       .  S
C665        H671   1.083       .  S
C665        C666   1.362       .  D
C666        C967   1.492       .  S
C667        H672   1.085       .  S
C667        C668   1.372       .  D
C668        C904   1.531       .  S
O673       Cu681   2.014       .  S
O673        C683   1.278       .  A
O674      Cu1005   2.022       .  S
O674        C684   1.279       .  A
O675      Cu1005   2.010       .  S
O675        C685   1.278       .  A
O676       Cu681   2.018       .  S
O676        C686   1.279       .  A
O677       Cu682   2.019       .  S
O677        C686   1.278       .  A
O678      Cu1006   2.010       .  S
O678        C685   1.277       .  A
O679      Cu1006   2.006       .  S
O679        C684   1.278       .  A
O680       Cu682   2.003       .  S
O680        C683   1.277       .  A
Cu681       O998   2.022   1_554  S
Cu681       O999   2.010   1_554  S
Cu681      Cu682   2.373       .  S
Cu682      O1002   2.010   1_554  S
Cu682      O1003   2.006   1_554  S
C683        C924   1.482       .  S
C684        C884   1.484       .  S
C685        C957   1.477       .  S
C686        C894   1.483       .  S
C687        C688   1.540       .  S
C687        C693   1.525       .  S
C687        C691   1.553       .  S
C687        C887   1.551       .  S
C688        H695   1.079       .  S
C688        C689   1.376       .  D
C689        C690   1.556       .  S
C689        C864   1.526       .  S
C690        C694   1.559       .  S
C690        C692   1.541       .  S
C690        H696   1.095       .  S
C691        H697   1.083       .  S
C691        C692   1.367       .  D
C692        C874   1.506       .  S
C693        H698   1.086       .  S
C693        C694   1.356       .  D
C694        C857   1.499       .  S
C699        C700   1.532       .  S
C699        C705   1.536       .  S
C699        C703   1.559       .  S
C699        C897   1.558       .  S
C700        H707   1.087       .  S
C700        C701   1.357       .  D
C701        C702   1.560       .  S
C701        C844   1.494       .  S
C702        C706   1.551       .  S
C702        C704   1.533       .  S
C702        H708   1.091       .  S
C703        H709   1.081       .  S
C703        C704   1.373       .  D
C704        C877   1.508       .  S
C705        H710   1.084       .  S
C705        C706   1.373       .  D
C706        C834   1.529       .  S
C711        C717   1.546       .  S
C711        C715   1.553       .  S
C711        C814   1.547       .  S
C712        H719   1.088       .  S
C712        C713   1.357       .  D
C713        C947   1.493       .  S
C714        C718   1.555       .  S
C714        C716   1.543       .  S
C714        H720   1.101       .  S
C715        H721   1.085       .  S
C715        C716   1.368       .  D
C716        C824   1.507       .  S
C717        H722   1.075       .  S
C717        C718   1.373       .  D
C718        C937   1.528       .  S
C723        C729   1.540   1_545  S
C723        C727   1.546       .  S
C723        C807   1.551       .  S
C724        H731   1.085       .  S
C724        C725   1.374       .  D
C725        C917   1.534       .  S
C726        C730   1.556   1_545  S
C726        H732   1.100       .  S
C727        H733   1.083       .  S
C728        C827   1.498       .  S
C729        H734   1.084       .  S
C729        C730   1.363       .  D
C730        C907   1.496       .  S
O735       Cu743   2.011   1_655  S
O735        C745   1.278       .  A
O736      Cu1067   2.017       .  S
O736        C746   1.279       .  A
O737      Cu1067   2.014   1_655  S
O737        C747   1.278       .  A
O738       Cu743   2.020       .  S
O738        C748   1.279       .  A
O739       Cu744   2.005       .  S
O740      Cu1068   2.003   1_655  S
O741      Cu1068   2.023       .  S
O742       Cu744   2.018   1_655  S
Cu743      O1060   2.017   1_554  S
Cu743      O1061   2.014   1_454  S
Cu744      O1064   2.003   1_454  S
Cu744      O1065   2.023   1_554  S
C745        C804   1.486       .  S
C746        C787   1.487       .  S
C747        C817   1.477       .  S
C748        C794   1.480       .  S
C749        C755   1.543   1_545  S
C749        C753   1.558       .  S
C749        C784   1.554   1_545  S
C750        H757   1.086       .  S
C750        C751   1.353       .  D
C751        C867   1.493       .  S
C752        C756   1.554   1_545  S
C752        H758   1.091       .  S
C753        H759   1.083   1_545  S
C754        C774   1.514       .  S
C755        H760   1.081       .  S
C755        C756   1.376       .  D
C756        C854   1.529       .  S
C761        C767   1.530       .  S
C761        C765   1.559       .  S
C761        C797   1.551       .  S
C762        H769   1.085       .  S
C762        C763   1.374       .  D
C763        C847   1.528       .  S
C764        C768   1.562       .  S
C764        H770   1.096       .  S
C765        H771   1.083       .  S
C766        C777   1.514       .  S
C767        H772   1.086       .  S
C767        C768   1.353       .  D
C768        C837   1.495       .  S
C773        C774   1.413       .  A
C773        C778   1.404       .  A
C773       Br780   1.914       .  S
C775        C776   1.423       .  A
C775       Br782   1.928       .  S
C776        C777   1.417   1_565  A
C776       Br781   1.923       .  S
C778       Br779   1.912       .  S
C783        C784   1.429       .  A
C783        C788   1.410       .  A
C783       Br790   1.940       .  S
C785        C786   1.415       .  A
C785       Br792   1.934       .  S
C786        C787   1.409       .  A
C786       Br791   1.934       .  S
C788       Br789   1.934       .  S
C793        C794   1.405       .  A
C793        C798   1.407       .  A
C793       Br800   1.933       .  S
C795        C796   1.412       .  A
C795       Br802   1.935       .  S
C796       Br801   1.928       .  S
C797        C798   1.428       .  A
C798       Br799   1.940       .  S
C803        C804   1.409       .  A
C803        C808   1.411       .  A
C803       Br810   1.936       .  S
C805        C806   1.411       .  A
C805       Br812   1.934       .  S
C806        C807   1.422   1_565  A
C806       Br811   1.936       .  S
C808       Br809   1.936       .  S
C813        C814   1.422       .  A
C813        C818   1.409       .  A
C813       Br820   1.936       .  S
C815        C816   1.408       .  A
C815       Br822   1.926       .  S
C816       Br821   1.934       .  S
C817        C818   1.408       .  A
C818       Br819   1.932       .  S
C823        C824   1.412       .  A
C823        C828   1.405       .  A
C823       Br830   1.916       .  S
C825        C826   1.416       .  A
C825       Br832   1.919       .  S
C826       Br831   1.931       .  S
C827        C828   1.407       .  A
C828       Br829   1.926       .  S
C833        C834   1.430       .  A
C833        C838   1.403       .  A
C833       Br840   1.936       .  S
C834        C835   1.434       .  A
C835        C836   1.414       .  A
C835       Br842   1.931       .  S
C836        C837   1.409       .  A
C836       Br841   1.943       .  S
C837        C838   1.395       .  A
C838       Br839   1.930       .  S
C843        C844   1.411       .  A
C843        C848   1.418       .  A
C843       Br850   1.941       .  S
C844        C845   1.395       .  A
C845        C846   1.402       .  A
C845       Br852   1.929       .  S
C846        C847   1.428       .  A
C846       Br851   1.935       .  S
C847        C848   1.433       .  A
C848       Br849   1.930       .  S
C853        C854   1.428       .  A
C853        C858   1.412       .  A
C853       Br860   1.931       .  S
C854        C855   1.428       .  A
C855        C856   1.407       .  A
C855       Br862   1.934       .  S
C856        C857   1.398       .  A
C856       Br861   1.927       .  S
C857        C858   1.409       .  A
C858       Br859   1.939       .  S
C863        C864   1.426       .  A
C863        C868   1.401       .  A
C863       Br870   1.934       .  S
C864        C865   1.429       .  A
C865        C866   1.416       .  A
C865       Br872   1.931       .  S
C866        C867   1.412       .  A
C866       Br871   1.938       .  S
C867        C868   1.395       .  A
C868       Br869   1.927       .  S
C873        C874   1.406       .  A
C873        C878   1.403       .  A
C873       Br880   1.909       .  S
C874        C875   1.415       .  A
C875        C876   1.420       .  A
C875       Br882   1.925       .  S
C876        C877   1.416       .  A
C876       Br881   1.925       .  S
C877        C878   1.412       .  A
C878       Br879   1.917       .  S
C883        C884   1.408       .  A
C883        C888   1.413       .  A
C883       Br890   1.936       .  S
C884        C885   1.405       .  A
C885        C886   1.408       .  A
C885       Br892   1.934       .  S
C886        C887   1.428       .  A
C886       Br891   1.939       .  S
C887        C888   1.429       .  A
C888       Br889   1.937       .  S
C893        C894   1.406       .  A
C893        C898   1.416       .  A
C893       Br900   1.935       .  S
C894        C895   1.403       .  A
C895        C896   1.410       .  A
C895       Br902   1.934       .  S
C896        C897   1.431       .  A
C896       Br901   1.941       .  S
C897        C898   1.430       .  A
C898       Br899   1.930       .  S
C903        C904   1.430       .  A
C903        C908   1.420       .  A
C903       Br910   1.930       .  S
C904        C905   1.431       .  A
C905        C906   1.405       .  A
C905       Br912   1.931       .  S
C906        C907   1.401       .  A
C906       Br911   1.934       .  S
C907        C908   1.408       .  A
C908       Br909   1.921       .  S
C913        C914   1.407       .  A
C913        C918   1.419       .  A
C913       Br920   1.920       .  S
C914        C915   1.402       .  A
C915        C916   1.407       .  A
C915       Br922   1.934       .  S
C916        C917   1.432       .  A
C916       Br921   1.930       .  S
C917        C918   1.431       .  A
C918       Br919   1.931       .  S
C923        C924   1.410       .  A
C923        C928   1.407       .  A
C923       Br930   1.933       .  S
C924        C925   1.410       .  A
C925        C926   1.410       .  A
C925       Br932   1.937       .  S
C926        C927   1.427       .  A
C926       Br931   1.936       .  S
C927        C928   1.420       .  A
C928       Br929   1.936       .  S
C933        C934   1.403       .  A
C933        C938   1.407       .  A
C933       Br940   1.934       .  S
C934        C935   1.405       .  A
C935        C936   1.415       .  A
C935       Br942   1.923       .  S
C936        C937   1.430       .  A
C936       Br941   1.932       .  S
C937        C938   1.433       .  A
C938       Br939   1.940       .  S
C943        C944   1.434       .  A
C943        C948   1.408       .  A
C943       Br950   1.941       .  S
C944        C945   1.433       .  A
C945        C946   1.417       .  A
C945       Br952   1.932       .  S
C946        C947   1.405       .  A
C946       Br951   1.926       .  S
C947        C948   1.403       .  A
C948       Br949   1.935       .  S
C953        C954   1.424       .  A
C953        C958   1.410       .  A
C953       Br960   1.936       .  S
C954        C955   1.423       .  A
C955        C956   1.407       .  A
C955       Br962   1.928       .  S
C956        C957   1.405       .  A
C956       Br961   1.934       .  S
C957        C958   1.408       .  A
C958      Br1283   1.933       .  S
Br959      C1282   1.933       .  S
C963        C964   1.414       .  A
C963        C968   1.414       .  A
C963       Br970   1.919       .  S
C964        C965   1.409       .  A
C965        C966   1.403       .  A
C965       Br972   1.915       .  S
C966        C967   1.406       .  A
C966       Br971   1.926       .  S
C967        C968   1.415       .  A
C968       Br969   1.932       .  S
C973        C974   1.549       .  S
C973        C979   1.522       .  S
C973        C977   1.552       .  S
C973       C1278   1.549       .  S
C974        H981   1.072       .  S
C974        C975   1.376       .  D
C975        C976   1.555       .  S
C975       C1268   1.532       .  S
C976        C980   1.557       .  S
C976        C978   1.541       .  S
C976        H982   1.100       .  S
C977        H983   1.085       .  S
C977        C978   1.365       .  D
C978       C1288   1.500       .  S
C979        H984   1.088       .  S
C979        C980   1.357       .  D
C980       C1258   1.492       .  S
C985        C986   1.539       .  S
C985        C991   1.534       .  S
C985        C989   1.542       .  S
C985       C1251   1.546       .  S
C986        H993   1.085       .  S
C986        C987   1.362       .  D
C987        C988   1.557       .  S
C987       C1238   1.497       .  S
C988        C992   1.560       .  S
C988        C990   1.542       .  S
C988        H994   1.101       .  S
C989        H995   1.083       .  S
C989        C990   1.362       .  D
C990       C1291   1.492       .  S
C991        H996   1.085       .  S
C991        C992   1.372       .  D
C992       C1228   1.531       .  S
O997      Cu1005   2.014       .  S
O997       C1007   1.278       .  A
O998       C1008   1.279       .  A
O999       C1009   1.278       .  A
O1000     Cu1005   2.018       .  S
O1000      C1010   1.279       .  A
O1001     Cu1006   2.019       .  S
O1001      C1010   1.278       .  A
O1002      C1009   1.277       .  A
O1003      C1008   1.278       .  A
O1004     Cu1006   2.003       .  S
O1004      C1007   1.277       .  A
Cu1005    Cu1006   2.373       .  S
C1007      C1248   1.482       .  S
C1008      C1208   1.484       .  S
C1009      C1281   1.478       .  S
C1010      C1218   1.483       .  S
C1011      C1012   1.540       .  S
C1011      C1017   1.525       .  S
C1011      C1015   1.553       .  S
C1011      C1211   1.551       .  S
C1012      H1019   1.079       .  S
C1012      C1013   1.376       .  D
C1013      C1014   1.556       .  S
C1013      C1188   1.526       .  S
C1014      C1018   1.559       .  S
C1014      C1016   1.541       .  S
C1014      H1020   1.095       .  S
C1015      H1021   1.083       .  S
C1015      C1016   1.367       .  D
C1016      C1198   1.506       .  S
C1017      H1022   1.086       .  S
C1017      C1018   1.356       .  D
C1018      C1181   1.499       .  S
C1023      C1024   1.532       .  S
C1023      C1029   1.536       .  S
C1023      C1027   1.559       .  S
C1023      C1221   1.558       .  S
C1024      H1031   1.087       .  S
C1024      C1025   1.357       .  D
C1025      C1026   1.560       .  S
C1025      C1168   1.494       .  S
C1026      C1030   1.551       .  S
C1026      C1028   1.533       .  S
C1026      H1032   1.091       .  S
C1027      H1033   1.081       .  S
C1027      C1028   1.373       .  D
C1028      C1201   1.508       .  S
C1029      H1034   1.084       .  S
C1029      C1030   1.373       .  D
C1030      C1158   1.529       .  S
C1035      C1041   1.546       .  S
C1035      C1039   1.553       .  S
C1035      C1138   1.547       .  S
C1036      H1043   1.088       .  S
C1036      C1037   1.357       .  D
C1037      C1271   1.493       .  S
C1038      C1042   1.555       .  S
C1038      C1040   1.543       .  S
C1038      H1044   1.101       .  S
C1039      H1045   1.085       .  S
C1039      C1040   1.368       .  D
C1040      C1148   1.507       .  S
C1041      H1046   1.075       .  S
C1041      C1042   1.373       .  D
C1042      C1261   1.528       .  S
C1047      C1053   1.540   1_545  S
C1047      C1051   1.546       .  S
C1047      C1131   1.551       .  S
C1048      H1055   1.085       .  S
C1048      C1049   1.374       .  D
C1049      C1241   1.534       .  S
C1050      C1054   1.556   1_545  S
C1050      H1056   1.100       .  S
C1051      H1057   1.083       .  S
C1052      C1151   1.498       .  S
C1053      H1058   1.084       .  S
C1053      C1054   1.363       .  D
C1054      C1231   1.496       .  S
O1059     Cu1067   2.011   1_655  S
O1059      C1069   1.278       .  A
O1060      C1070   1.279       .  A
O1061      C1071   1.278       .  A
O1062     Cu1067   2.020       .  S
O1062      C1072   1.279       .  A
O1063     Cu1068   2.005       .  S
O1066     Cu1068   2.018   1_655  S
C1069      C1128   1.487       .  S
C1070      C1111   1.487       .  S
C1071      C1141   1.477       .  S
C1072      C1118   1.480       .  S
C1073      C1079   1.543   1_545  S
C1073      C1077   1.558       .  S
C1073      C1108   1.554   1_545  S
C1074      H1081   1.086       .  S
C1074      C1075   1.353       .  D
C1075      C1191   1.493       .  S
C1076      C1080   1.554   1_545  S
C1076      H1082   1.091       .  S
C1077      H1083   1.083   1_545  S
C1078      C1098   1.515       .  S
C1079      H1084   1.081       .  S
C1079      C1080   1.376       .  D
C1080      C1178   1.529       .  S
C1085      C1091   1.530       .  S
C1085      C1089   1.559       .  S
C1085      C1121   1.551       .  S
C1086      H1093   1.085       .  S
C1086      C1087   1.374       .  D
C1087      C1171   1.528       .  S
C1088      C1092   1.562       .  S
C1088      H1094   1.095       .  S
C1089      H1095   1.083       .  S
C1090      C1101   1.514       .  S
C1091      H1096   1.086       .  S
C1091      C1092   1.353       .  D
C1092      C1161   1.495       .  S
C1097      C1098   1.413       .  A
C1097      C1102   1.404       .  A
C1097     Br1104   1.914       .  S
C1099      C1100   1.423       .  A
C1099     Br1106   1.928       .  S
C1100      C1101   1.417   1_565  A
C1100     Br1105   1.923       .  S
C1102     Br1103   1.912       .  S
C1107      C1108   1.429       .  A
C1107      C1112   1.410       .  A
C1107     Br1114   1.940       .  S
C1109      C1110   1.415       .  A
C1109     Br1116   1.934       .  S
C1110      C1111   1.409       .  A
C1110     Br1115   1.934       .  S
C1112     Br1113   1.934       .  S
C1117      C1118   1.405       .  A
C1117      C1122   1.407       .  A
C1117     Br1124   1.933       .  S
C1119      C1120   1.412       .  A
C1119     Br1126   1.935       .  S
C1120     Br1125   1.928       .  S
C1121      C1122   1.428       .  A
C1122     Br1123   1.940       .  S
C1127      C1128   1.409       .  A
C1127      C1132   1.411       .  A
C1127     Br1134   1.936       .  S
C1129      C1130   1.411       .  A
C1129     Br1136   1.934       .  S
C1130      C1131   1.422   1_565  A
C1130     Br1135   1.936       .  S
C1132     Br1133   1.936       .  S
C1137      C1138   1.421       .  A
C1137      C1142   1.409       .  A
C1137     Br1144   1.936       .  S
C1139      C1140   1.408       .  A
C1139     Br1146   1.926       .  S
C1140     Br1145   1.934       .  S
C1141      C1142   1.408       .  A
C1142     Br1143   1.932       .  S
C1147      C1148   1.412       .  A
C1147      C1152   1.405       .  A
C1147     Br1154   1.916       .  S
C1149      C1150   1.416       .  A
C1149     Br1156   1.919       .  S
C1150     Br1155   1.931       .  S
C1151      C1152   1.407       .  A
C1152     Br1153   1.926       .  S
C1157      C1158   1.430       .  A
C1157      C1162   1.403       .  A
C1157     Br1164   1.936       .  S
C1158      C1159   1.434       .  A
C1159      C1160   1.414       .  A
C1159     Br1166   1.931       .  S
C1160      C1161   1.409       .  A
C1160     Br1165   1.943       .  S
C1161      C1162   1.395       .  A
C1162     Br1163   1.930       .  S
C1167      C1168   1.411       .  A
C1167      C1172   1.418       .  A
C1167     Br1174   1.941       .  S
C1168      C1169   1.395       .  A
C1169      C1170   1.402       .  A
C1169     Br1176   1.929       .  S
C1170      C1171   1.428       .  A
C1170     Br1175   1.935       .  S
C1171      C1172   1.433       .  A
C1172     Br1173   1.930       .  S
C1177      C1178   1.428       .  A
C1177      C1182   1.412       .  A
C1177     Br1184   1.931       .  S
C1178      C1179   1.428       .  A
C1179      C1180   1.407       .  A
C1179     Br1186   1.934       .  S
C1180      C1181   1.398       .  A
C1180     Br1185   1.927       .  S
C1181      C1182   1.409       .  A
C1182     Br1183   1.939       .  S
C1187      C1188   1.426       .  A
C1187      C1192   1.401       .  A
C1187     Br1194   1.934       .  S
C1188      C1189   1.428       .  A
C1189      C1190   1.416       .  A
C1189     Br1196   1.931       .  S
C1190      C1191   1.412       .  A
C1190     Br1195   1.938       .  S
C1191      C1192   1.395       .  A
C1192     Br1193   1.927       .  S
C1197      C1198   1.406       .  A
C1197      C1202   1.403       .  A
C1197     Br1204   1.909       .  S
C1198      C1199   1.415       .  A
C1199      C1200   1.420       .  A
C1199     Br1206   1.925       .  S
C1200      C1201   1.416       .  A
C1200     Br1205   1.926       .  S
C1201      C1202   1.412       .  A
C1202     Br1203   1.917       .  S
C1207      C1208   1.408       .  A
C1207      C1212   1.413       .  A
C1207     Br1214   1.936       .  S
C1208      C1209   1.405       .  A
C1209      C1210   1.408       .  A
C1209     Br1216   1.934       .  S
C1210      C1211   1.428       .  A
C1210     Br1215   1.939       .  S
C1211      C1212   1.429       .  A
C1212     Br1213   1.937       .  S
C1217      C1218   1.406       .  A
C1217      C1222   1.416       .  A
C1217     Br1224   1.935       .  S
C1218      C1219   1.403       .  A
C1219      C1220   1.409       .  A
C1219     Br1226   1.934       .  S
C1220      C1221   1.431       .  A
C1220     Br1225   1.941       .  S
C1221      C1222   1.430       .  A
C1222     Br1223   1.930       .  S
C1227      C1228   1.430       .  A
C1227      C1232   1.420       .  A
C1227     Br1234   1.930       .  S
C1228      C1229   1.431       .  A
C1229      C1230   1.405       .  A
C1229     Br1236   1.931       .  S
C1230      C1231   1.401       .  A
C1230     Br1235   1.934       .  S
C1231      C1232   1.408       .  A
C1232     Br1233   1.921       .  S
C1237      C1238   1.407       .  A
C1237      C1242   1.419       .  A
C1237     Br1244   1.920       .  S
C1238      C1239   1.402       .  A
C1239      C1240   1.407       .  A
C1239     Br1246   1.934       .  S
C1240      C1241   1.432       .  A
C1240     Br1245   1.930       .  S
C1241      C1242   1.431       .  A
C1242     Br1243   1.931       .  S
C1247      C1248   1.410       .  A
C1247      C1252   1.407       .  A
C1247     Br1254   1.933       .  S
C1248      C1249   1.410       .  A
C1249      C1250   1.411       .  A
C1249     Br1256   1.937       .  S
C1250      C1251   1.427       .  A
C1250     Br1255   1.936       .  S
C1251      C1252   1.420       .  A
C1252     Br1253   1.936       .  S
C1257      C1258   1.403       .  A
C1257      C1262   1.407       .  A
C1257     Br1264   1.934       .  S
C1258      C1259   1.405       .  A
C1259      C1260   1.415       .  A
C1259     Br1266   1.923       .  S
C1260      C1261   1.430       .  A
C1260     Br1265   1.932       .  S
C1261      C1262   1.433       .  A
C1262     Br1263   1.940       .  S
C1267      C1268   1.434       .  A
C1267      C1272   1.408       .  A
C1267     Br1274   1.941       .  S
C1268      C1269   1.433       .  A
C1269      C1270   1.417       .  A
C1269     Br1276   1.932       .  S
C1270      C1271   1.405       .  A
C1270     Br1275   1.926       .  S
C1271      C1272   1.403       .  A
C1272     Br1273   1.935       .  S
C1277      C1278   1.424       .  A
C1277      C1282   1.410       .  A
C1277     Br1284   1.936       .  S
C1278      C1279   1.423       .  A
C1279      C1280   1.407       .  A
C1279     Br1286   1.928       .  S
C1280      C1281   1.405       .  A
C1280     Br1285   1.934       .  S
C1281      C1282   1.408       .  A
C1287      C1288   1.414       .  A
C1287      C1292   1.414       .  A
C1287     Br1294   1.919       .  S
C1288      C1289   1.409       .  A
C1289      C1290   1.403       .  A
C1289     Br1296   1.915       .  S
C1290      C1291   1.406       .  A
C1290     Br1295   1.926       .  S
C1291      C1292   1.415       .  A
C1292     Br1293   1.932       .  S
