geometry optimzed in LAMMPS
_audit_creation_date              2020-11-30 
_audit_creation_method            'lammps2cif' 
_symmetry_space_group_name_H-M    'P1' 
_symmetry_Int_Tables_number       1 
_symmetry_cell_setting            triclinic 
loop_ 
_symmetry_equiv_pos_as_xyz 
  x,y,z 
_cell_length_a                    63.27600213 
_cell_length_b                    21.57377723805491 
_cell_length_c                    22.505000301969265 
_cell_angle_alpha                 90.01721222240185 
_cell_angle_beta                  91.03090543839946 
_cell_angle_gamma                 91.02953569127187 
loop_ 
_atom_site_label 
_atom_site_type_symbol 
_atom_site_fract_x 
_atom_site_fract_y 
_atom_site_fract_z 
_atom_site_charge 
O1          O  0.68758796  0.66227926  0.66116847    -0.80200
O2          O  0.59094861  0.60916255  0.70468867    -0.64900
O3          O  0.64401404  0.66059414  0.64125406    -1.11500
C4          C  0.64197734  0.81528240  0.79417127     1.06700
O5          O  0.58051841  0.70615216  0.71545700    -0.78100
O6          O  0.60461972  0.80651197  0.69488543    -0.65700
Ni7        Ni  0.66620433  0.60365075  0.63256485     1.34900
C8          C  0.61589009  0.80998288  0.64882370     0.85500
O9          O  0.61349829  0.57251977  0.61133931    -0.78600
O10         O  0.64693084  0.54038591  0.60103716    -0.88900
C11         C  0.57643250  0.64864462  0.70980319     0.85000
O12         O  0.66450588  0.56965419  0.71032978    -0.67100
O13         O  0.62354386  0.79398342  0.80489084    -0.86400
C14         C  0.64836409  0.54912589  0.73708218     0.85900
C15         C  0.62700913  0.53524593  0.59098276     1.07400
H16         H  0.62953959  0.67226322  0.76900099     0.39200
O17         O  0.62451577  0.69309113  0.73361589    -1.09000
O18         O  0.63251163  0.77875005  0.64213003    -0.65700
Ni19       Ni  0.64879084  0.72791428  0.69521719     1.26300
O20         O  0.62966488  0.56649127  0.72404702    -0.65900
O21         O  0.65298072  0.79682713  0.75056561    -0.78200
C22         C  0.68918580  0.71969434  0.64839200     0.85200
O23         O  0.67352727  0.75535052  0.65373564    -0.65400
Ni24       Ni  0.60309218  0.74785275  0.75855928     1.27400
Ni25       Ni  0.61810580  0.63178588  0.67360809     1.26100
H26         H  0.64097739  0.67675549  0.60204356     0.39800
C27         C  0.58238257  0.15321521  0.38177107    -0.01800
C28         C  0.66913787  0.20071244  0.01832901    -0.01800
O29         O  0.81932374  0.35269068  0.14921803    -0.80200
O30         O  0.91802447  0.38160798  0.19556246    -0.64900
O31         O  0.86333822  0.34120457  0.12947686    -1.11500
C32         C  0.86315690  0.16503244  0.24939775     1.06700
O33         O  0.92774087  0.28582962  0.21951554    -0.78100
O34         O  0.90360182  0.21812393  0.14320788    -0.65700
Ni35       Ni  0.84244226  0.40393315  0.12042573     1.34900
C36         C  0.88760422  0.20229992  0.11162431     0.85500
O37         O  0.89553385  0.42760883  0.10581447    -0.78600
O38         O  0.86275792  0.46249930  0.08895571    -0.88900
C39         C  0.93202106  0.34264560  0.21010051     0.85000
O40         O  0.84586275  0.43858899  0.19758870    -0.67100
O41         O  0.88267832  0.16641115  0.23730126    -0.86400
C42         C  0.86217004  0.44927291  0.22983579     0.85900
C43         C  0.88275718  0.46645746  0.08325384     1.07400
H44         H  0.88150729  0.31479255  0.25852021     0.39200
O45         O  0.88390210  0.29782329  0.21931659    -1.09000
O46         O  0.86875506  0.21547170  0.12627047    -0.65700
Ni47       Ni  0.85726516  0.27494139  0.18287475     1.26300
O48         O  0.88007259  0.42515256  0.21973896    -0.65900
O49         O  0.85128429  0.21054829  0.23903251    -0.78200
C50         C  0.81589052  0.29480636  0.14267040     0.85200
O51         O  0.83073488  0.25641820  0.14556234    -0.65400
Ni52       Ni  0.90367459  0.23158887  0.22649175     1.27400
Ni53       Ni  0.89026993  0.36370376  0.16352500     1.26100
H54         H  0.86566020  0.32452079  0.09038320     0.39800
C55         C  0.91962020  0.84733381  0.86326851    -0.01800
C56         C  0.83235318  0.80104913  0.49465190    -0.01800
O57         O  0.31668013  0.17365563  0.34164007    -0.80200
O58         O  0.41582318  0.15529665  0.31588223    -0.64900
O59         O  0.35984827  0.18502114  0.36995000    -1.11500
C60         C  0.36254576  0.34634968  0.22228962     1.06700
O61         O  0.42236146  0.25635519  0.31993605    -0.78100
O62         O  0.39507233  0.34944185  0.32721778    -0.65700
Ni63       Ni  0.33901273  0.12085230  0.37078733     1.34900
C64         C  0.38241142  0.34928665  0.37013795     0.85500
O65         O  0.39208318  0.10266391  0.40116721    -0.78600
O66         O  0.35909285  0.06245410  0.40312452    -0.88900
C67         C  0.42869408  0.20086081  0.32266545     0.85000
O68         O  0.34329471  0.09234448  0.29146869    -0.67100
O69         O  0.38163654  0.33016032  0.21472670    -0.86400
C70         C  0.36062674  0.07755882  0.26834053     0.85900
C71         C  0.37880804  0.06066777  0.41677276     1.07400
H72         H  0.37740665  0.20821539  0.24678814     0.39200
O73         O  0.38081037  0.22837249  0.28418536    -1.09000
O74         O  0.36769876  0.30883695  0.37589836    -0.65700
Ni75       Ni  0.35481195  0.25323150  0.31728444     1.26300
O76         O  0.37846553  0.10012250  0.28612002    -0.65900
O77         O  0.35061339  0.32215954  0.26201754    -0.78200
C78         C  0.31337095  0.23021990  0.35421046     0.85200
O79         O  0.32819883  0.27079369  0.35255040    -0.65400
Ni80       Ni  0.40133363  0.29057351  0.26729593     1.27400
Ni81       Ni  0.38726613  0.16561275  0.34189613     1.26100
H82         H  0.36143290  0.20027107  0.41019804     0.39800
C83         C  0.42500200  0.68978676  0.63948694    -0.01800
C84         C  0.33214089  0.72756216  0.99148618    -0.01800
O85         O  0.18394590  0.88796528  0.85729338    -0.80200
O86         O  0.08700445  0.92416214  0.80827745    -0.64900
O87         O  0.14039701  0.88136237  0.87868675    -1.11500
C88         C  0.13684651  0.72234094  0.73064203     1.06700
O89         O  0.07743281  0.82508657  0.81409166    -0.78100
O90         O  0.10191007  0.72733272  0.83493749    -0.65700
Ni91       Ni  0.16277928  0.93901110  0.89337608     1.34900
C92         C  0.11492564  0.72549295  0.87848093     0.85500
O93         O  0.11035052  0.97266982  0.89959628    -0.78600
O94         O  0.14365881  0.99299585  0.93278543    -0.88900
C95         C  0.07270998  0.88173716  0.80900715     0.85000
O96         O  0.15996068  0.98559070  0.82168768    -0.67100
O97         O  0.11758106  0.73713313  0.72274980    -0.86400
C98         C  0.14469678  0.99530793  0.78558693     0.85900
C99         C  0.12379197  0.00270378  0.93212715     1.07400
H100        H  0.12406339  0.86010250  0.75080122     0.39200
O101        O  0.12000502  0.84177476  0.78816560    -1.09000
O102        O  0.13139391  0.75977992  0.88196927    -0.65700
Ni103      Ni  0.14520688  0.81373978  0.82617047     1.26300
O104        O  0.12676913  0.96736494  0.78865977    -0.65900
O105        O  0.14894129  0.74551995  0.77149026    -0.78200
C106        C  0.18659015  0.83061007  0.86791912     0.85200
O107        O  0.17113250  0.79232203  0.86564263    -0.65400
Ni108      Ni  0.09827706  0.78288203  0.76939738     1.27400
Ni109      Ni  0.11444529  0.90723168  0.84293044     1.26100
H110        H  0.13692127  0.86486468  0.91726563     0.39800
C111        C  0.08441783  0.37805503  0.15095660    -0.01800
C112        C  0.17571477  0.34692059  0.51526951    -0.01800
C113        C  0.12977790  0.37639752  0.27304714     0.16700
C114        C  0.14906695  0.36985465  0.30379162    -0.32400
C115        C  0.14846819  0.36048868  0.36544811     0.21100
C116        C  0.12959147  0.35888823  0.39541268     0.03300
C117        C  0.11026288  0.36574182  0.36468598    -0.22100
C118        C  0.11084429  0.37409795  0.30276761     0.12400
S119        S  0.12711201  0.38492153  0.19797484    -0.05800
C120        C  0.09980301  0.38208899  0.20535714    -0.09200
C121        C  0.09373980  0.37869898  0.26477824    -0.25800
S122        S  0.13248090  0.34974370  0.47047054    -0.03000
C123        C  0.15973597  0.34623761  0.46199470    -0.16500
C124        C  0.16559774  0.35339437  0.40272587    -0.14500
H125        H  0.16390396  0.37123809  0.28054472     0.20900
H126        H  0.09542286  0.36406566  0.38790893     0.16900
H127        H  0.07764836  0.37738324  0.28009032     0.19400
H128        H  0.18166393  0.35616450  0.38719090     0.12800
C129        C  0.17512270  0.49670437  0.61666180     0.16700
C130        C  0.17635576  0.53871850  0.66434246    -0.32400
C131        C  0.16321121  0.59048822  0.66187654     0.21100
C132        C  0.14976792  0.60033197  0.61356910     0.03300
C133        C  0.14916641  0.55958449  0.56510119    -0.22100
C134        C  0.16196791  0.50730149  0.56825536     0.12400
S135        S  0.18776098  0.42764445  0.61381086    -0.05800
C136        C  0.17441873  0.41039390  0.54753332    -0.09200
C137        C  0.16204476  0.45978398  0.52799830    -0.25800
S138        S  0.13351109  0.66181366  0.62126913    -0.03000
C139        C  0.14504307  0.67515220  0.69018782    -0.16500
C140        C  0.16078790  0.63396569  0.70578995    -0.14500
H141        H  0.18640322  0.53001975  0.70278083     0.20900
H142        H  0.13841143  0.56669830  0.52783828     0.16900
H143        H  0.15293656  0.46126521  0.48698561     0.19400
H144        H  0.16918365  0.63388338  0.74814508     0.12800
C145        C  0.14606902  0.11777230  0.66027675     0.16700
C146        C  0.14208601  0.15655264  0.61130822    -0.32400
C147        C  0.15626304  0.20634314  0.60146017     0.21100
C148        C  0.17352105  0.21703470  0.63873849     0.03300
C149        C  0.17768485  0.17802348  0.68724597    -0.22100
C150        C  0.16360374  0.12816582  0.69691805     0.12400
S151        S  0.13050365  0.05593619  0.68117073    -0.05800
C152        C  0.14798698  0.04340050  0.73947309    -0.09200
C153        C  0.16487848  0.08552953  0.74196084    -0.25800
S154        S  0.18870742  0.27940549  0.61920005    -0.03000
C155        C  0.17144045  0.29360143  0.56001578    -0.16500
C156        C  0.15522801  0.24869794  0.55587230    -0.14500
H157        H  0.12847053  0.14848202  0.58233055     0.20900
H158        H  0.19129596  0.18622138  0.71623779     0.16900
H159        H  0.17722603  0.08591046  0.77593323     0.19400
H160        H  0.14345876  0.24487726  0.52083554     0.12800
C161        C  0.08600058  0.50869312  0.02893330     0.16700
C162        C  0.08324006  0.54276195  0.97672302    -0.32400
C163        C  0.09572755  0.59617634  0.96968431     0.21100
C164        C  0.11022727  0.61558278  0.01300168     0.03300
C165        C  0.11266592  0.58185149  0.06620947    -0.22100
C166        C  0.10027414  0.52743851  0.07281545     0.12400
S167        S  0.07304636  0.44126445  0.04335257    -0.05800
C168        C  0.08737424  0.43483264  0.10939239    -0.09200
C169        C  0.10083001  0.48624932  0.11961453    -0.25800
S170        S  0.12459453  0.68030644  0.99352525    -0.03000
C171        C  0.11080021  0.68059980  0.92652899    -0.16500
C172        C  0.09584273  0.63333718  0.92053653    -0.14500
H173        H  0.07215331  0.52740791  0.94232238     0.20900
H174        H  0.12407012  0.59638921  0.10008878     0.16900
H175        H  0.11060013  0.49389312  0.15886195     0.19400
H176        H  0.08591769  0.62547871  0.88144236     0.12800
C177        C  0.11410693  0.13084869  0.04522419     0.16700
C178        C  0.11615415  0.17409114  0.09137697    -0.32400
C179        C  0.10252115  0.22444177  0.09051274     0.21100
C180        C  0.08725308  0.23087130  0.04647600     0.03300
C181        C  0.08481573  0.18680128  0.00074010    -0.22100
C182        C  0.09871983  0.13673378  0.00099255     0.12400
S183        S  0.13050126  0.07013537  0.03600650    -0.05800
C184        C  0.11654359  0.05179855  0.97183713    -0.09200
C185        C  0.09985001  0.09073892  0.95885861    -0.25800
S186        S  0.07276237  0.29606560  0.05347796    -0.03000
C187        C  0.08820868  0.31784445  0.11506389    -0.16500
C188        C  0.10279534  0.27239946  0.13035017    -0.14500
H189        H  0.12831253  0.16969928  0.12552942     0.20900
H190        H  0.07297743  0.19209313  0.96585189     0.16900
H191        H  0.08982631  0.08738602  0.91943256     0.19400
H192        H  0.11305823  0.27257381  0.16911233     0.12800
C193        C  0.24504979  0.78791699  0.88087520     0.16700
C194        C  0.26669261  0.77995286  0.87202128    -0.32400
C195        C  0.27908294  0.76006681  0.92044684     0.21100
C196        C  0.27047443  0.74964250  0.97564062     0.03300
C197        C  0.24865795  0.75623687  0.98434661    -0.22100
C198        C  0.23614196  0.77521841  0.93550156     0.12400
S199        S  0.22774313  0.81562217  0.82854920    -0.05800
C200        C  0.20810405  0.80851465  0.88003611    -0.09200
C201        C  0.21477151  0.78617533  0.93501199    -0.25800
S202        S  0.28880341  0.73184426  0.02957120    -0.03000
C203        C  0.30831908  0.73358725  0.97624175    -0.16500
C204        C  0.30047031  0.75131638  0.92044066    -0.14500
H205        H  0.27365816  0.78981427  0.82937234     0.20900
H206        H  0.24181992  0.74808630  0.02746813     0.16900
H207        H  0.20469503  0.78065048  0.97310836     0.19400
H208        H  0.30995905  0.76039569  0.88180361     0.12800
C209        C  0.39715219  0.73459233  0.78883512     0.16700
C210        C  0.39035173  0.76295592  0.84146978    -0.32400
C211        C  0.37183361  0.73923070  0.86786692     0.21100
C212        C  0.36079331  0.68941623  0.84292197     0.03300
C213        C  0.36733544  0.66206306  0.78999337    -0.22100
C214        C  0.38574752  0.68565791  0.76381772     0.12400
S215        S  0.41901355  0.75587374  0.74917423    -0.05800
C216        C  0.41300841  0.69721762  0.69835775    -0.09200
C217        C  0.39441918  0.66484240  0.71227675    -0.25800
S218        S  0.33971386  0.66433271  0.88297258    -0.03000
C219        C  0.34498208  0.72313723  0.93395020    -0.16500
C220        C  0.36280325  0.75915284  0.91979722    -0.14500
H221        H  0.39915696  0.80150112  0.86113115     0.20900
H222        H  0.35858003  0.62334504  0.77042218     0.16900
H223        H  0.38684309  0.62927388  0.68515072     0.19400
H224        H  0.36932355  0.79648514  0.94692921     0.12800
C225        C  0.23400025  0.33983766  0.45791654     0.16700
C226        C  0.25512472  0.35081510  0.44204221    -0.32400
C227        C  0.26560829  0.30317842  0.41252128     0.21100
C228        C  0.25540418  0.24736166  0.39911196     0.03300
C229        C  0.23432006  0.23648513  0.41485142    -0.22100
C230        C  0.22396122  0.28381460  0.44482212     0.12400
S231        S  0.21846492  0.39138893  0.49391167    -0.05800
C232        C  0.19807535  0.33671272  0.49189361    -0.09200
C233        C  0.20357462  0.28155712  0.46434988    -0.25800
S234        S  0.27095059  0.19444758  0.36554252    -0.03000
C235        C  0.29165464  0.24750690  0.37007769    -0.16500
C236        C  0.28642217  0.30373721  0.39558327    -0.14500
H237        H  0.26309918  0.39431803  0.45276744     0.20900
H238        H  0.22641664  0.19266542  0.40487696     0.16900
H239        H  0.19294368  0.24207001  0.45821145     0.19400
H240        H  0.29744431  0.34194367  0.40351144     0.12800
C241        C  0.33677095  0.47811815  0.12964511     0.16700
C242        C  0.32353429  0.52067414  0.10015360    -0.32400
C243        C  0.33311096  0.57297220  0.07317144     0.21100
C244        C  0.35479969  0.58196158  0.07528909     0.03300
C245        C  0.36799277  0.53892269  0.10321393    -0.22100
C246        C  0.35849563  0.48712683  0.13019574     0.12400
S247        S  0.32861514  0.41355031  0.16872726    -0.05800
C248        C  0.35485089  0.39820867  0.18458644    -0.09200
C249        C  0.36883670  0.44152936  0.16079330    -0.25800
S250        S  0.36340163  0.64870127  0.04235716    -0.03000
C251        C  0.33735876  0.66722328  0.02592456    -0.16500
C252        C  0.32307807  0.62058958  0.04367761    -0.14500
H253        H  0.30653201  0.51402745  0.09931487     0.20900
H254        H  0.38497959  0.54604878  0.10471212     0.16900
H255        H  0.38584513  0.44068630  0.16700510     0.19400
H256        H  0.30623860  0.62020229  0.03545832     0.12800
C257        C  0.34140188  0.89051217  0.06936241     0.16700
C258        C  0.34106993  0.95352911  0.08630063    -0.32400
C259        C  0.34951984  0.96986486  0.14276463     0.21100
C260        C  0.35821254  0.92537920  0.17982230     0.03300
C261        C  0.35798336  0.86255732  0.16351715    -0.22100
C262        C  0.34923221  0.84616890  0.10781101     0.12400
S263        S  0.33212502  0.86043794  0.00317666    -0.05800
C264        C  0.33817763  0.78637565  0.02805871    -0.09200
C265        C  0.34707900  0.78701741  0.08532427    -0.25800
S266        S  0.36804911  0.95364902  0.24582449    -0.03000
C267        C  0.36006564  0.02632076  0.22458869    -0.16500
C268        C  0.35014230  0.02802248  0.16884349    -0.14500
H269        H  0.33443090  0.98814838  0.05694722     0.20900
H270        H  0.36427712  0.82774698  0.19327469     0.16900
H271        H  0.35139426  0.74655651  0.11068645     0.19400
H272        H  0.34347551  0.06918551  0.14903377     0.12800
C273        C  0.38708252  0.90960806  0.50409536     0.16700
C274        C  0.38390001  0.85339862  0.53370678    -0.32400
C275        C  0.40158564  0.82398083  0.55767082     0.21100
C276        C  0.42176098  0.84879440  0.55201135     0.03300
C277        C  0.42504194  0.90569445  0.52207879    -0.22100
C278        C  0.40711493  0.93576801  0.49831727     0.12400
S279        S  0.36724280  0.95119986  0.47296717    -0.05800
C280        C  0.38574241  0.00582021  0.45139366    -0.09200
C281        C  0.40648427  0.99157633  0.46786314    -0.25800
S282        S  0.44092585  0.80404053  0.58447229    -0.03000
C283        C  0.42143561  0.75065658  0.60490360    -0.16500
C284        C  0.40124690  0.76924872  0.58837546    -0.14500
H285        H  0.36817951  0.83342440  0.53807043     0.20900
H286        H  0.44076893  0.92556791  0.51766377     0.16900
H287        H  0.42023408  0.02003993  0.45788683     0.19400
H288        H  0.38693660  0.74292440  0.59753454     0.12800
C289        C  0.40669837  0.53113114  0.56674679     0.16700
C290        C  0.40192869  0.46860770  0.55317109    -0.32400
C291        C  0.39448910  0.45471643  0.49521612     0.21100
C292        C  0.39208007  0.50119407  0.45315632     0.03300
C293        C  0.39651737  0.56323279  0.46705045    -0.22100
C294        C  0.40380262  0.57701601  0.52460702     0.12400
S295        S  0.41704724  0.55821210  0.63270205    -0.05800
C296        C  0.41649014  0.63306633  0.60408011    -0.09200
C297        C  0.40943836  0.63472969  0.54514987    -0.25800
S298        S  0.38476228  0.47587820  0.38418522    -0.03000
C299        C  0.38453335  0.40159401  0.41166911    -0.16500
C300        C  0.38991968  0.39685642  0.47162708    -0.14500
H301        H  0.40431419  0.43242843  0.58581752     0.20900
H302        H  0.39476909  0.59923940  0.43388811     0.16900
H303        H  0.40897881  0.67555648  0.51735189     0.19400
H304        H  0.39153982  0.35359475  0.49551735     0.12800
C305        C  0.98132156  0.86530346  0.87364044     0.16700
C306        C  0.00217834  0.87594198  0.89340426    -0.32400
C307        C  0.01771124  0.88436940  0.85044634     0.21100
C308        C  0.01283867  0.88094518  0.79025541     0.03300
C309        C  0.99188180  0.86994826  0.77036744    -0.22100
C310        C  0.97620757  0.86281064  0.81360280     0.12400
S311        S  0.96033758  0.85620065  0.91924159    -0.05800
C312        C  0.94384123  0.85181282  0.85695722    -0.09200
C313        C  0.95481822  0.85423706  0.80361477    -0.25800
S314        S  0.03447338  0.88719186  0.74581907    -0.03000
C315        C  0.05010066  0.89584303  0.80908141    -0.16500
C316        C  0.03893957  0.89312381  0.86139512    -0.14500
H317        H  0.00612719  0.87779970  0.94039839     0.20900
H318        H  0.98797557  0.86709220  0.72339104     0.16900
H319        H  0.94768498  0.85163493  0.75965991     0.19400
H320        H  0.04620208  0.89268195  0.90534496     0.12800
C321        C  0.88882822  0.79008295  0.71950241     0.16700
C322        C  0.87648664  0.75688025  0.67763848    -0.32400
C323        C  0.86959411  0.78842461  0.62667149     0.21100
C324        C  0.87526391  0.84967832  0.61694582     0.03300
C325        C  0.88818262  0.88256136  0.65811502    -0.22100
C326        C  0.89462309  0.85141550  0.71008811     0.12400
S327        S  0.89681148  0.76150087  0.78638340    -0.05800
C328        C  0.90847398  0.83288731  0.80321716    -0.09200
C329        C  0.90600743  0.87610291  0.75752889    -0.25800
S330        S  0.86387678  0.88030359  0.55456094    -0.03000
C331        C  0.85006283  0.81080982  0.54263697    -0.16500
C332        C  0.85581820  0.76560167  0.58391327    -0.14500
H333        H  0.87167262  0.70924873  0.68574558     0.20900
H334        H  0.89230882  0.93089547  0.65107554     0.16900
H335        H  0.91184106  0.92355870  0.75964806     0.19400
H336        H  0.84978697  0.71838644  0.58387447     0.12800
C337        C  0.83136378  0.96224599  0.41245313     0.16700
C338        C  0.83092251  0.02568736  0.39867405    -0.32400
C339        C  0.83985932  0.04500181  0.34496932     0.21100
C340        C  0.84857144  0.00273422  0.30638060     0.03300
C341        C  0.84835351  0.93907174  0.31931119    -0.22100
C342        C  0.83974862  0.91995810  0.37352883     0.12400
S343        S  0.82370667  0.93084700  0.47828701    -0.05800
C344        C  0.83178713  0.85873141  0.45374065    -0.09200
C345        C  0.83988447  0.86089752  0.39640651    -0.25800
S346        S  0.86101322  0.03584144  0.24731982    -0.03000
C347        C  0.85436100  0.10737459  0.27465753    -0.16500
C348        C  0.84278399  0.10524098  0.32635856    -0.14500
H349        H  0.82478006  0.05888152  0.42975220     0.20900
H350        H  0.85552427  0.90622603  0.28974735     0.16900
H351        H  0.84660361  0.82204269  0.37343236     0.19400
H352        H  0.83807663  0.14562399  0.35109967     0.12800
C353        C  0.83258633  0.65638834  0.38914364     0.16700
C354        C  0.82719370  0.61012816  0.34768847    -0.32400
C355        C  0.84297391  0.56919096  0.33101037     0.21100
C356        C  0.86329834  0.57345500  0.35469447     0.03300
C357        C  0.86861672  0.61933611  0.39734990    -0.22100
C358        C  0.85275267  0.66086206  0.41384267     0.12400
S359        S  0.81587921  0.71240376  0.41163024    -0.05800
C360        C  0.83592733  0.74257473  0.45694171    -0.09200
C361        C  0.85481681  0.71017464  0.45274093    -0.25800
S362        S  0.88039171  0.52145952  0.32440320    -0.03000
C363        C  0.85984572  0.49422736  0.27929406    -0.16500
C364        C  0.84087070  0.52387470  0.28864229    -0.14500
H365        H  0.81145715  0.60716500  0.32803336     0.20900
H366        H  0.88450745  0.62344542  0.41574073     0.16900
H367        H  0.86946493  0.72265845  0.47560616     0.19400
H368        H  0.82634881  0.51461324  0.26372690     0.12800
C369        C  0.90827167  0.09722278  0.98938193     0.16700
C370        C  0.92161819  0.05992070  0.95641251    -0.32400
C371        C  0.91284434  0.00657351  0.92962330     0.21100
C372        C  0.89152741  0.99231032  0.93285513     0.03300
C373        C  0.87792676  0.03066479  0.96477530    -0.22100
C374        C  0.88691356  0.08289343  0.99402998     0.12400
S375        S  0.91687000  0.15789442  0.03227429    -0.05800
C376        C  0.89158945  0.16390993  0.05862657    -0.09200
C377        C  0.87712122  0.12169480  0.03342393    -0.25800
S378        S  0.88461444  0.92308692  0.89995513    -0.03000
C379        C  0.91119820  0.90971125  0.88722224    -0.16500
C380        C  0.92395146  0.96111394  0.90228493    -0.14500
H381        H  0.93843236  0.06997030  0.95485261     0.20900
H382        H  0.86136231  0.01847613  0.96931836     0.16900
H383        H  0.86080565  0.11654715  0.04657228     0.19400
H384        H  0.94080123  0.96511571  0.89606862     0.12800
C385        C  0.90022255  0.71971497  0.97599303     0.16700
C386        C  0.88834965  0.68402271  0.01567713    -0.32400
C387        C  0.89284318  0.62086281  0.02034377     0.21100
C388        C  0.90890446  0.59447439  0.98836804     0.03300
C389        C  0.92063269  0.63027061  0.94787777    -0.22100
C390        C  0.91566864  0.69336964  0.94195384     0.12400
S391        S  0.89646888  0.79631703  0.96256866    -0.05800
C392        C  0.91504412  0.79360067  0.90712058    -0.09200
C393        C  0.92420877  0.73521168  0.90256550    -0.25800
S394        S  0.91217763  0.51703835  0.00253526    -0.03000
C395        C  0.89121233  0.52032881  0.05036395    -0.16500
C396        C  0.88247954  0.57851768  0.05510437    -0.14500
H397        H  0.87587943  0.70442667  0.04112522     0.20900
H398        H  0.93282843  0.60969247  0.92155144     0.16900
H399        H  0.93597599  0.72347528  0.87027738     0.19400
H400        H  0.86931499  0.58939020  0.08316517     0.12800
C401        C  0.98934708  0.40330668  0.19709666     0.16700
C402        C  0.00808789  0.43392271  0.18026580    -0.32400
C403        C  0.02701517  0.40085113  0.18468993     0.21100
C404        C  0.02730729  0.34068499  0.20600985     0.03300
C405        C  0.00876885  0.31087358  0.22451235    -0.22100
C406        C  0.98986307  0.34330579  0.21893922     0.12400
S407        S  0.96433285  0.43171223  0.18825758    -0.05800
C408        C  0.95457875  0.36156022  0.21365522    -0.09200
C409        C  0.97011709  0.31959906  0.22916724    -0.25800
S410        S  0.05131819  0.30657476  0.20346326    -0.03000
C411        C  0.06145458  0.37387806  0.17206788    -0.16500
C412        C  0.04656076  0.42061840  0.16633242    -0.14500
H413        H  0.00780592  0.48034550  0.16203033     0.20900
H414        H  0.00892833  0.26338728  0.24010239     0.16900
H415        H  0.96709702  0.27251776  0.24390255     0.19400
H416        H  0.04960119  0.46639178  0.14846199     0.12800
C417        C  0.72198754  0.26250704  0.09212999     0.16700
C418        C  0.73796503  0.29966104  0.11840752    -0.32400
C419        C  0.75852029  0.27657380  0.11971735     0.21100
C420        C  0.76284706  0.21820749  0.09769042     0.03300
C421        C  0.74681035  0.18096623  0.07162024    -0.22100
C422        C  0.72635741  0.20497230  0.06842474     0.12400
S423        S  0.69635664  0.28358633  0.08383854    -0.05800
C424        C  0.69135528  0.21530863  0.04465706    -0.09200
C425        C  0.70893225  0.17751909  0.04137617    -0.25800
S426        S  0.78891185  0.19935396  0.10189518    -0.03000
C427        C  0.79414491  0.27172668  0.13164991    -0.16500
C428        C  0.77642677  0.30761242  0.13920134    -0.14500
H429        H  0.73462216  0.34531186  0.13551383     0.20900
H430        H  0.75025887  0.13606133  0.05299841     0.16900
H431        H  0.70915390  0.13260578  0.02004157     0.19400
H432        H  0.77670678  0.35452940  0.15639083     0.12800
C433        C  0.48737040  0.20814064  0.36671704     0.16700
C434        C  0.50750507  0.22790964  0.38596727    -0.32400
C435        C  0.52461566  0.19087520  0.37182271     0.21100
C436        C  0.52190866  0.13629930  0.34016346     0.03300
C437        C  0.50158130  0.11559241  0.32182891    -0.22100
C438        C  0.48433180  0.15293884  0.33584913     0.12400
S439        S  0.46508672  0.24950957  0.37608281    -0.05800
C440        C  0.45118530  0.19209776  0.33818575    -0.09200
C441        C  0.46337274  0.14282783  0.32005951    -0.25800
S442        S  0.54501547  0.09875839  0.32792860    -0.03000
C443        C  0.55864615  0.15764844  0.36585871    -0.16500
C444        C  0.54526763  0.20284617  0.38732181    -0.14500
H445        H  0.50978355  0.27098861  0.41017761     0.20900
H446        H  0.49934775  0.07277986  0.29721887     0.16900
H447        H  0.45743851  0.10356016  0.29442425     0.19400
H448        H  0.54989402  0.24151320  0.41541077     0.12800
C449        C  0.62426067  0.17907477  0.13748111     0.16700
C450        C  0.60517787  0.17295511  0.16812083    -0.32400
C451        C  0.60633514  0.16286545  0.22981148     0.21100
C452        C  0.62562832  0.15811994  0.25925723     0.03300
C453        C  0.64466578  0.16377139  0.22855206    -0.22100
C454        C  0.64347082  0.17498108  0.16715778     0.12400
S455        S  0.62639417  0.19193247  0.06296791    -0.05800
C456        C  0.65372160  0.19508171  0.07122361    -0.09200
C457        C  0.66021503  0.18321962  0.12997932    -0.25800
S458        S  0.62378062  0.14862542  0.33412325    -0.03000
C459        C  0.59645057  0.15101959  0.32671742    -0.16500
C460        C  0.58960235  0.15903786  0.26795305    -0.14500
H461        H  0.59009958  0.17682389  0.14503787     0.20900
H462        H  0.65976388  0.16082099  0.25172638     0.16900
H463        H  0.67644557  0.17929044  0.14526553     0.19400
H464        H  0.57335577  0.16470460  0.25363388     0.12800
C465        C  0.73910721  0.78698239  0.57467796     0.16700
C466        C  0.75389523  0.81586072  0.53722093    -0.32400
C467        C  0.77509617  0.79733346  0.54201103     0.21100
C468        C  0.78119544  0.75235908  0.58215460     0.03300
C469        C  0.76648075  0.72311993  0.61904909    -0.22100
C470        C  0.74536607  0.74128863  0.61417550     0.12400
S471        S  0.71251039  0.80118847  0.57532449    -0.05800
C472        C  0.70986121  0.74397150  0.62842305    -0.09200
C473        C  0.72871901  0.71633302  0.64469814    -0.25800
S474        S  0.80730936  0.73530429  0.58034459    -0.03000
C475        C  0.81085465  0.79084537  0.52562007    -0.16500
C476        C  0.79178529  0.81865345  0.50887447    -0.14500
H477        H  0.74907578  0.85082276  0.50549770     0.20900
H478        H  0.77125045  0.68715896  0.64978993     0.16900
H479        H  0.73009295  0.67868311  0.67628397     0.19400
H480        H  0.78979023  0.85110463  0.47273937     0.12800
C481        C  0.67152685  0.05812491  0.90911623     0.16700
C482        C  0.67365881  0.01829898  0.85995268    -0.32400
C483        C  0.66398038  0.95899104  0.86266113     0.21100
C484        C  0.65308424  0.94026421  0.91265910     0.03300
C485        C  0.65136684  0.97942250  0.96193479    -0.22100
C486        C  0.66057205  0.03883504  0.95864627     0.12400
S487        S  0.68056282  0.13337108  0.91354693    -0.05800
C488        C  0.66886541  0.13977039  0.98245997    -0.09200
C489        C  0.65915628  0.08457758  0.00063668    -0.25800
S490        S  0.64076680  0.86969448  0.90614595    -0.03000
C491        C  0.65013774  0.86450721  0.83487564    -0.16500
C492        C  0.66257120  0.91515526  0.81784995    -0.14500
H493        H  0.68183136  0.03364427  0.82059310     0.20900
H494        H  0.64245546  0.96505364  0.00035377     0.16900
H495        H  0.65112152  0.07782397  0.04222528     0.19400
H496        H  0.66899918  0.92140235  0.77394816     0.12800
C497        C  0.66691833  0.42669313  0.84957987     0.16700
C498        C  0.67895940  0.38778808  0.88601391    -0.32400
C499        C  0.66851847  0.33849409  0.91425615     0.21100
C500        C  0.64711121  0.32748787  0.90609886     0.03300
C501        C  0.63492627  0.36648461  0.86930052    -0.22100
C502        C  0.64534882  0.41674095  0.84154328     0.12400
S503        S  0.67701518  0.48792977  0.81091271    -0.05800
C504        C  0.65192705  0.50157506  0.78346471    -0.09200
C505        C  0.63656841  0.46000054  0.80370509    -0.25800
S506        S  0.63796745  0.26386008  0.94395537    -0.03000
C507        C  0.66304496  0.25397298  0.97496253    -0.16500
C508        C  0.67769037  0.29653918  0.95179048    -0.14500
H509        H  0.69580463  0.39572552  0.89222488     0.20900
H510        H  0.61812898  0.35809113  0.86267072     0.16900
H511        H  0.62008194  0.46015614  0.78996431     0.19400
H512        H  0.69453366  0.29690954  0.96086549     0.12800
C513        C  0.60570923  0.91415310  0.51347139     0.16700
C514        C  0.60701829  0.94710904  0.45992504    -0.32400
C515        C  0.59516422  0.00119348  0.45432633     0.21100
C516        C  0.58200187  0.02011686  0.49910975     0.03300
C517        C  0.58014749  0.98615193  0.55180002    -0.22100
C518        C  0.59255396  0.93340867  0.55824755     0.12400
S519        S  0.62078781  0.85198731  0.53194783    -0.05800
C520        C  0.60947132  0.85260819  0.60103621    -0.09200
C521        C  0.59444135  0.89781427  0.60833719    -0.25800
S522        S  0.57012525  0.08885795  0.48588692    -0.03000
C523        C  0.58395378  0.09476955  0.42022961    -0.16500
C524        C  0.59598475  0.04289920  0.40836070    -0.14500
H525        H  0.61763208  0.93299918  0.42542436     0.20900
H526        H  0.57024420  0.00182871  0.58736373     0.16900
H527        H  0.58597784  0.90582665  0.64896054     0.19400
H528        H  0.60538487  0.03630925  0.36931878     0.12800
C529        C  0.60716443  0.28236530  0.48596259     0.16700
C530        C  0.61719857  0.31628769  0.53174510    -0.32400
C531        C  0.61593106  0.38099908  0.52957236     0.21100
C532        C  0.60498464  0.41073474  0.48420381     0.03300
C533        C  0.59558481  0.37672895  0.43725944    -0.22100
C534        C  0.59705194  0.31189368  0.43915342     0.12400
S535        S  0.60572738  0.20363903  0.48267056    -0.05800
C536        C  0.59070253  0.20959309  0.41773166    -0.09200
C537        C  0.58852918  0.27063246  0.39859190    -0.25800
S538        S  0.60424103  0.48956948  0.49184086    -0.03000
C539        C  0.61942541  0.48211264  0.55557160    -0.16500
C540        C  0.62453816  0.42185765  0.57015384    -0.14500
H541        H  0.62533864  0.29321287  0.56799613     0.20900
H542        H  0.58720311  0.39969008  0.40139441     0.16900
H543        H  0.58028870  0.28404960  0.35814371     0.21000
H544        H  0.63384847  0.40872887  0.60885830     0.12800
C545        C  0.48533448  0.65262968  0.63442305     0.16700
C546        C  0.50603944  0.64150074  0.61647339    -0.32400
C547        C  0.52159782  0.63390457  0.66090256     0.21100
C548        C  0.51666549  0.63611222  0.72062873     0.03300
C549        C  0.49580288  0.64583279  0.73853462    -0.22100
C550        C  0.48029990  0.65485819  0.69398310     0.12400
S551        S  0.46465990  0.66662615  0.58726021    -0.05800
C552        C  0.44872207  0.67755469  0.64820293    -0.09200
C553        C  0.45934874  0.66837545  0.70229691    -0.25800
S554        S  0.53821780  0.63392286  0.76745254    -0.03000
C555        C  0.55401983  0.62999500  0.70601930    -0.16500
C556        C  0.54296878  0.62985551  0.65228696    -0.14500
H557        H  0.50999997  0.64117809  0.56985857     0.20900
H558        H  0.49200837  0.64898662  0.78514832     0.16900
H559        H  0.45227415  0.67069405  0.74557296     0.19400
H560        H  0.55031194  0.63262371  0.60923355     0.12800
loop_ 
_geom_bond_atom_site_label_1 
_geom_bond_atom_site_label_2 
_geom_bond_distance 
_geom_bond_site_symmetry_2 
_ccdc_geom_bond_type 
O1           Ni7   1.937       .  S
O1           C22   1.274       .  A
O2          Ni25   1.922       .  S
O2           C11   1.271       .  A
O3           Ni7   1.895       .  S
O3          Ni25   1.900       .  S
O3          Ni19   1.909       .  S
O3           H26   0.966       .  S
C4           O21   1.281       .  A
C4           O13   1.273       .  A
C4          C491   1.482       .  S
O5          Ni24   1.922       .  S
O5           C11   1.269       .  A
O6          Ni24   1.915       .  S
O6            C8   1.270       .  A
Ni7          O10   1.940       .  S
Ni7          O12   1.902       .  S
C8           O18   1.270       .  A
C8          C520   1.472       .  S
O9          Ni25   1.912       .  S
O9           C15   1.275       .  A
O10          C15   1.280       .  A
C11         C555   1.468       .  S
O12          C14   1.268       .  A
O13         Ni24   1.912       .  S
C14          O20   1.277       .  A
C14         C504   1.481       .  S
C15         C539   1.465       .  S
H16          O17   0.966       .  S
O17         Ni25   1.923       .  S
O17         Ni19   1.918       .  S
O17         Ni24   1.906       .  S
O18         Ni19   1.921       .  S
Ni19         O23   1.921       .  S
Ni19         O21   1.951       .  S
O20         Ni25   1.953       .  S
C22          O23   1.273       .  A
C22         C472   1.478       .  S
C27         C443   1.542       .  S
C27         C459   1.540       .  S
C27         C523   1.533       .  S
C27         C536   1.540       .  S
C28         C424   1.543       .  S
C28         C456   1.556       .  S
C28         C488   1.542   1_554  S
C28         C507   1.557   1_554  S
O29         Ni35   1.939       .  S
O29          C50   1.272       .  A
O30         Ni53   1.919       .  S
O30          C39   1.271       .  A
O31         Ni35   1.917       .  S
O31         Ni53   1.910       .  S
O31         Ni47   1.906       .  S
O31          H54   0.965       .  S
C32          O49   1.266       .  A
C32          O41   1.269       .  A
C32         C347   1.472       .  S
O33         Ni52   1.912       .  S
O33          C39   1.269       .  A
O34         Ni52   1.897       .  S
O34          C36   1.268       .  A
Ni35         O38   1.930       .  S
Ni35         O40   1.898       .  S
C36          O46   1.280       .  A
C36         C376   1.480       .  S
O37         Ni53   1.923       .  S
O37          C43   1.274       .  A
O38          C43   1.276       .  A
C39         C408   1.478       .  S
O40          C42   1.268       .  A
O41         Ni52   1.935       .  S
C42          O48   1.279       .  A
C42         C363   1.487       .  S
C43         C395   1.476       .  S
H44          O45   0.971       .  S
O45         Ni53   1.938       .  S
O45         Ni47   1.918       .  S
O45         Ni52   1.921       .  S
O46         Ni47   1.966       .  S
Ni47         O51   1.899       .  S
Ni47         O49   1.916       .  S
O48         Ni53   1.958       .  S
C50          O51   1.264       .  A
C50         C427   1.472       .  S
C55         C312   1.543       .  S
C55         C328   1.542       .  S
C55         C379   1.556       .  S
C55         C392   1.549       .  S
C56         C331   1.554       .  S
C56         C344   1.549       .  S
C56         C360   1.543       .  S
C56         C475   1.552       .  S
O57         Ni63   1.936       .  S
O57          C78   1.274       .  A
O58         Ni81   1.926       .  S
O58          C67   1.273       .  A
O59         Ni63   1.895       .  S
O59         Ni81   1.910       .  S
O59         Ni75   1.917       .  S
O59          H82   0.966       .  S
C60          O77   1.285       .  A
C60          O69   1.278       .  A
C60         C248   1.488       .  S
O61         Ni80   1.923       .  S
O61          C67   1.270       .  A
O62         Ni80   1.904       .  S
O62          C64   1.266       .  A
Ni63         O66   1.938       .  S
Ni63         O68   1.913       .  S
C64          O74   1.273       .  A
C64         C299   1.468       .  S
O65         Ni81   1.928       .  S
O65          C71   1.278       .  A
O66          C71   1.281       .  A
C67         C440   1.475       .  S
O68          C70   1.268       .  A
O69         Ni80   1.915       .  S
C70          O76   1.279       .  A
C70         C267   1.480       .  S
C71         C280   1.485       .  S
H72          O73   0.966       .  S
O73         Ni81   1.921       .  S
O73         Ni75   1.904       .  S
O73         Ni80   1.894       .  S
O74         Ni75   1.941       .  S
Ni75         O79   1.918       .  S
Ni75         O77   1.958       .  S
O76         Ni81   1.956       .  S
C78          O79   1.273       .  A
C78         C235   1.480       .  S
C83         C216   1.548       .  S
C83         C283   1.545       .  S
C83         C296   1.544       .  S
C83         C552   1.538       .  S
C84         C203   1.548       .  S
C84         C219   1.545       .  S
C84         C251   1.553   1_556  S
C84         C264   1.550   1_556  S
O85         Ni91   1.938       .  S
O85         C106   1.274       .  A
O86        Ni109   1.932       .  S
O86          C95   1.275       .  A
O87         Ni91   1.892       .  S
O87        Ni109   1.908       .  S
O87        Ni103   1.909       .  S
O87         H110   0.966       .  S
C88         O105   1.281       .  A
C88          O97   1.275       .  A
C88         C139   1.473       .  S
O89        Ni108   1.916       .  S
O89          C95   1.268       .  A
O90        Ni108   1.914       .  S
O90          C92   1.270       .  A
Ni91         O94   1.922       .  S
Ni91         O96   1.908       .  S
C92         O102   1.268       .  A
C92         C171   1.476       .  S
O93        Ni109   1.926       .  S
O93          C99   1.279   1_565  A
O94          C99   1.278   1_565  A
C95         C315   1.468       .  S
O96          C98   1.271       .  A
O97        Ni108   1.912       .  S
C98         O104   1.278       .  A
C98         C152   1.482   1_565  S
C99         C184   1.471       .  S
H100        O101   0.966       .  S
O101       Ni109   1.916       .  S
O101       Ni103   1.904       .  S
O101       Ni108   1.897       .  S
O102       Ni103   1.923       .  S
Ni103       O107   1.915       .  S
Ni103       O105   1.939       .  S
O104       Ni109   1.945       .  S
C106        O107   1.269       .  A
C106        C200   1.471       .  S
C111        C120   1.552       .  S
C111        C168   1.552       .  S
C111        C187   1.554       .  S
C111        C411   1.538       .  S
C112        C123   1.554       .  S
C112        C136   1.554       .  S
C112        C155   1.552       .  S
C112        C232   1.538       .  S
C113        S119   1.705       .  A
C113        C118   1.383       .  A
C113        C114   1.402       .  A
C114        C115   1.403       .  A
C114        H125   1.083       .  S
C115        C124   1.369       .  A
C115        C116   1.382       .  A
C116        S122   1.708       .  A
C116        C117   1.404       .  A
C117        C118   1.406       .  A
C117        H126   1.083       .  S
C118        C121   1.372       .  A
S119        C120   1.739       .  A
C120        C121   1.399       .  A
C121        H127   1.081       .  S
S122        C123   1.742       .  A
C123        C124   1.399       .  A
C124        H128   1.082       .  S
C129        S135   1.705       .  A
C129        C134   1.381       .  A
C129        C130   1.405       .  A
C130        C131   1.405       .  A
C130        H141   1.083       .  S
C131        C140   1.375       .  A
C131        C132   1.387       .  A
C132        S138   1.704       .  A
C132        C133   1.400       .  A
C133        C134   1.402       .  A
C133        H142   1.083       .  S
C134        C137   1.368       .  A
S135        C136   1.738       .  A
C136        C137   1.400       .  A
C137        H143   1.080       .  S
S138        C139   1.724       .  A
C139        C140   1.387       .  A
C140        H144   1.083       .  S
C145        S151   1.715       .  A
C145        C150   1.385       .  A
C145        C146   1.406       .  A
C146        C147   1.407       .  A
C146        H157   1.083       .  S
C147        C156   1.376       .  A
C147        C148   1.381       .  A
C148        S154   1.702       .  A
C148        C149   1.403       .  A
C149        C150   1.404       .  A
C149        H158   1.083       .  S
C150        C153   1.371       .  A
S151        C152   1.725       .  A
C152        C153   1.391       .  A
C153        H159   1.083       .  S
S154        C155   1.738       .  A
C155        C156   1.400       .  A
C156        H160   1.077       .  S
C161        S167   1.691       .  A
C161        C166   1.382       .  A
C161        C162   1.396   1_554  A
C162        C163   1.396       .  A
C162        H173   1.083       .  S
C163        C172   1.366       .  A
C163        C164   1.386   1_556  A
C164        S170   1.714   1_554  A
C164        C165   1.409       .  A
C165        C166   1.409       .  A
C165        H174   1.083       .  S
C166        C169   1.379       .  A
S167        C168   1.734       .  A
C168        C169   1.403       .  A
C169        H175   1.080       .  S
S170        C171   1.729       .  A
C171        C172   1.384       .  A
C172        H176   1.083       .  S
C177        S183   1.700       .  A
C177        C182   1.387       .  A
C177        C178   1.399       .  A
C178        C179   1.399       .  A
C178        H189   1.083       .  S
C179        C188   1.368       .  A
C179        C180   1.380       .  A
C180        S186   1.702       .  A
C180        C181   1.406       .  A
C181        C182   1.405       .  A
C181        H190   1.083   1_554  S
C182        C185   1.376   1_554  A
S183        C184   1.721   1_554  A
C184        C185   1.388       .  A
C185        H191   1.083       .  S
S186        C187   1.741       .  A
C187        C188   1.397       .  A
C188        H192   1.078       .  S
C193        S199   1.709       .  A
C193        C198   1.387       .  A
C193        C194   1.401       .  A
C194        C195   1.403       .  A
C194        H205   1.083       .  S
C195        C204   1.370       .  A
C195        C196   1.382       .  A
C196        S202   1.712   1_556  A
C196        C197   1.408       .  A
C197        C198   1.408       .  A
C197        H206   1.083   1_556  S
C198        C201   1.377       .  A
S199        C200   1.719       .  A
C200        C201   1.389       .  A
C201        H207   1.083       .  S
S202        C203   1.737   1_554  A
C203        C204   1.398       .  A
C204        H208   1.081       .  S
C209        S215   1.715       .  A
C209        C214   1.382       .  A
C209        C210   1.411       .  A
C210        C211   1.411       .  A
C210        H221   1.083       .  S
C211        C220   1.382       .  A
C211        C212   1.384       .  A
C212        S218   1.704       .  A
C212        C213   1.402       .  A
C213        C214   1.403       .  A
C213        H222   1.083       .  S
C214        C217   1.371       .  A
S215        C216   1.738       .  A
C216        C217   1.398       .  A
C217        H223   1.080       .  S
S218        C219   1.734       .  A
C219        C220   1.399       .  A
C220        H224   1.082       .  S
C225        S231   1.711       .  A
C225        C230   1.384       .  A
C225        C226   1.406       .  A
C226        C227   1.406       .  A
C226        H237   1.083       .  S
C227        C236   1.377       .  A
C227        C228   1.387       .  A
C228        S234   1.705       .  A
C228        C229   1.402       .  A
C229        C230   1.402       .  A
C229        H238   1.083       .  S
C230        C233   1.370       .  A
S231        C232   1.732       .  A
C232        C233   1.394       .  A
C233        H239   1.083       .  S
S234        C235   1.726       .  A
C235        C236   1.390       .  A
C236        H240   1.083       .  S
C241        S247   1.724       .  A
C241        C246   1.385       .  A
C241        C242   1.412       .  A
C242        C243   1.414       .  A
C242        H253   1.083       .  S
C243        C252   1.381       .  A
C243        C244   1.383       .  A
C244        S250   1.705       .  A
C244        C245   1.401       .  A
C245        C246   1.403       .  A
C245        H254   1.083       .  S
C246        C249   1.370       .  A
S247        C248   1.730       .  A
C248        C249   1.390       .  A
C249        H255   1.083       .  S
S250        C251   1.736       .  A
C251        C252   1.403       .  A
C252        H256   1.078       .  S
C257        S263   1.714       .  A
C257        C262   1.383       .  A
C257        C258   1.412       .  A
C258        C259   1.412       .  A
C258        H269   1.083       .  S
C259        C268   1.385   1_565  A
C259        C260   1.386       .  A
C260        S266   1.708       .  A
C260        C261   1.404       .  A
C261        C262   1.404       .  A
C261        H270   1.083       .  S
C262        C265   1.376       .  A
S263        C264   1.740       .  A
C264        C265   1.397       .  A
C265        H271   1.080       .  S
S266        C267   1.721   1_565  A
C267        C268   1.394       .  A
C268        H272   1.083       .  S
C273        S279   1.697       .  A
C273        C278   1.387       .  A
C273        C274   1.397       .  A
C274        C275   1.396       .  A
C274        H285   1.083       .  S
C275        C284   1.368       .  A
C275        C276   1.383       .  A
C276        S282   1.717       .  A
C276        C277   1.414       .  A
C277        C278   1.414       .  A
C277        H286   1.083       .  S
C278        C281   1.386       .  A
S279        C280   1.722   1_565  A
C280        C281   1.397   1_545  A
C281        H287   1.083   1_565  S
S282        C283   1.740       .  A
C283        C284   1.390       .  A
C284        H288   1.083       .  S
C289        S295   1.710       .  A
C289        C294   1.383       .  A
C289        C290   1.409       .  A
C290        C291   1.409       .  A
C290        H301   1.083       .  S
C291        C300   1.380       .  A
C291        C292   1.388       .  A
C292        S298   1.699       .  A
C292        C293   1.397       .  A
C293        C294   1.397       .  A
C293        H302   1.083       .  S
C294        C297   1.367       .  A
S295        C296   1.740       .  A
C296        C297   1.392       .  A
C297        H303   1.081       .  S
S298        C299   1.718       .  A
C299        C300   1.390       .  A
C300        H304   1.083       .  S
C305        S311   1.701       .  A
C305        C310   1.384       .  A
C305        C306   1.400   1_655  A
C306        C307   1.401       .  A
C306        H317   1.083       .  S
C307        C316   1.371       .  A
C307        C308   1.385       .  A
C308        S314   1.713       .  A
C308        C309   1.408   1_455  A
C309        C310   1.408       .  A
C309        H318   1.083       .  S
C310        C313   1.377       .  A
S311        C312   1.734       .  A
C312        C313   1.398       .  A
C313        H319   1.081       .  S
S314        C315   1.727       .  A
C315        C316   1.384       .  A
C316        H320   1.083       .  S
C321        S327   1.699       .  A
C321        C326   1.384       .  A
C321        C322   1.401       .  A
C322        C323   1.401       .  A
C322        H333   1.083       .  S
C323        C332   1.372       .  A
C323        C324   1.382       .  A
C324        S330   1.705       .  A
C324        C325   1.408       .  A
C325        C326   1.407       .  A
C325        H334   1.083       .  S
C326        C329   1.379       .  A
S327        C328   1.735       .  A
C328        C329   1.397       .  A
C329        H335   1.083       .  S
S330        C331   1.740       .  A
C331        C332   1.396       .  A
C332        H336   1.081       .  S
C337        S343   1.704       .  A
C337        C342   1.384       .  A
C337        C338   1.404   1_565  A
C338        C339   1.404       .  A
C338        H349   1.083       .  S
C339        C348   1.376       .  A
C339        C340   1.387       .  A
C340        S346   1.707       .  A
C340        C341   1.404   1_545  A
C341        C342   1.404       .  A
C341        H350   1.083       .  S
C342        C345   1.375       .  A
S343        C344   1.739       .  A
C344        C345   1.397       .  A
C345        H351   1.082       .  S
S346        C347   1.723       .  A
C347        C348   1.386       .  A
C348        H352   1.083       .  S
C353        S359   1.703       .  A
C353        C358   1.384       .  A
C353        C354   1.399       .  A
C354        C355   1.401       .  A
C354        H365   1.083       .  S
C355        C364   1.369       .  A
C355        C356   1.385       .  A
C356        S362   1.721       .  A
C356        C357   1.411       .  A
C357        C358   1.412       .  A
C357        H366   1.083       .  S
C358        C361   1.380       .  A
S359        C360   1.731       .  A
C360        C361   1.400       .  A
C361        H367   1.082       .  S
S362        C363   1.729       .  A
C363        C364   1.390       .  A
C364        H368   1.083       .  S
C369        S375   1.702   1_556  A
C369        C374   1.387       .  A
C369        C370   1.399       .  A
C370        C371   1.400       .  A
C370        H381   1.083       .  S
C371        C380   1.369   1_545  A
C371        C372   1.381   1_545  A
C372        S378   1.713       .  A
C372        C373   1.410   1_565  A
C373        C374   1.410       .  A
C373        H382   1.083       .  S
C374        C377   1.382   1_556  A
S375        C376   1.723       .  A
C376        C377   1.393       .  A
C377        H383   1.083       .  S
S378        C379   1.741       .  A
C379        C380   1.398       .  A
C380        H384   1.080       .  S
C385        S391   1.700       .  A
C385        C390   1.383       .  A
C385        C386   1.400   1_556  A
C386        C387   1.401       .  A
C386        H397   1.083       .  S
C387        C396   1.369       .  A
C387        C388   1.386   1_554  A
C388        S394   1.716   1_556  A
C388        C389   1.408       .  A
C389        C390   1.408       .  A
C389        H398   1.083       .  S
C390        C393   1.376       .  A
S391        C392   1.731       .  A
C392        C393   1.401       .  A
C393        H399   1.083       .  S
S394        C395   1.726       .  A
C395        C396   1.385       .  A
C396        H400   1.083       .  S
C401        S407   1.716       .  A
C401        C406   1.386       .  A
C401        C402   1.405   1_655  A
C402        C403   1.407       .  A
C402        H413   1.083       .  S
C403        C412   1.372       .  A
C403        C404   1.384       .  A
C404        S410   1.702       .  A
C404        C405   1.398       .  A
C405        C406   1.400   1_455  A
C405        H414   1.083       .  S
C406        C409   1.365       .  A
S407        C408   1.726       .  A
C408        C409   1.388       .  A
C409        H415   1.083       .  S
S410        C411   1.733       .  A
C411        C412   1.397       .  A
C412        H416   1.082       .  S
C417        S423   1.699       .  A
C417        C422   1.385       .  A
C417        C418   1.401       .  A
C418        C419   1.401       .  A
C418        H429   1.083       .  S
C419        C428   1.371       .  A
C419        C420   1.387       .  A
C420        S426   1.707       .  A
C420        C421   1.403       .  A
C421        C422   1.403       .  A
C421        H430   1.083       .  S
C422        C425   1.374       .  A
S423        C424   1.738       .  A
C424        C425   1.394       .  A
C425        H431   1.082       .  S
S426        C427   1.723       .  A
C427        C428   1.387       .  A
C428        H432   1.083       .  S
C433        S439   1.699       .  A
C433        C438   1.387       .  A
C433        C434   1.398       .  A
C434        C435   1.398       .  A
C434        H445   1.083       .  S
C435        C444   1.367       .  A
C435        C436   1.382       .  A
C436        S442   1.711       .  A
C436        C437   1.409       .  A
C437        C438   1.409       .  A
C437        H446   1.083       .  S
C438        C441   1.380       .  A
S439        C440   1.723       .  A
C440        C441   1.390       .  A
C441        H447   1.083       .  S
S442        C443   1.738       .  A
C443        C444   1.395       .  A
C444        H448   1.080       .  S
C449        S455   1.707       .  A
C449        C454   1.381       .  A
C449        C450   1.405       .  A
C450        C451   1.406       .  A
C450        H461   1.083       .  S
C451        C460   1.376       .  A
C451        C452   1.384       .  A
C452        S458   1.703       .  A
C452        C453   1.403       .  A
C453        C454   1.404       .  A
C453        H462   1.083       .  S
C454        C457   1.371       .  A
S455        C456   1.736       .  A
C456        C457   1.403       .  A
C457        H463   1.082       .  S
S458        C459   1.736       .  A
C459        C460   1.396       .  A
C460        H464   1.081       .  S
C465        S471   1.716       .  A
C465        C470   1.386       .  A
C465        C466   1.408       .  A
C466        C467   1.409       .  A
C466        H477   1.083       .  S
C467        C476   1.376       .  A
C467        C468   1.381       .  A
C468        S474   1.700       .  A
C468        C469   1.400       .  A
C469        C470   1.402       .  A
C469        H478   1.083       .  S
C470        C473   1.370       .  A
S471        C472   1.726       .  A
C472        C473   1.387       .  A
C473        H479   1.083       .  S
S474        C475   1.733       .  A
C475        C476   1.403       .  A
C476        H480   1.080       .  S
C481        S487   1.714       .  A
C481        C486   1.383       .  A
C481        C482   1.411       .  A
C482        C483   1.410   1_545  A
C482        H493   1.083       .  S
C483        C492   1.383       .  A
C483        C484   1.387       .  A
C484        S490   1.703       .  A
C484        C485   1.401       .  A
C485        C486   1.401   1_565  A
C485        H494   1.083   1_556  S
C486        C489   1.371   1_556  A
S487        C488   1.737       .  A
C488        C489   1.395   1_556  A
C489        H495   1.082       .  S
S490        C491   1.724       .  A
C491        C492   1.393       .  A
C492        H496   1.083       .  S
C497        S503   1.703       .  A
C497        C502   1.386       .  A
C497        C498   1.399       .  A
C498        C499   1.401       .  A
C498        H509   1.083       .  S
C499        C508   1.368       .  A
C499        C500   1.380       .  A
C500        S506   1.713       .  A
C500        C501   1.410       .  A
C501        C502   1.411       .  A
C501        H510   1.083       .  S
C502        C505   1.381       .  A
S503        C504   1.723       .  A
C504        C505   1.393       .  A
C505        H511   1.083       .  S
S506        C507   1.739       .  A
C507        C508   1.400       .  A
C508        H512   1.081       .  S
C513        S519   1.707       .  A
C513        C518   1.387       .  A
C513        C514   1.402       .  A
C514        C515   1.403   1_565  A
C514        H525   1.083       .  S
C515        C524   1.372       .  A
C515        C516   1.385       .  A
C516        S522   1.698       .  A
C516        C517   1.400   1_545  A
C517        C518   1.400       .  A
C517        H526   1.083   1_565  S
C518        C521   1.369       .  A
S519        C520   1.724       .  A
C520        C521   1.386       .  A
C521        H527   1.083       .  S
S522        C523   1.734       .  A
C523        C524   1.393       .  A
C524        H528   1.081       .  S
C529        S535   1.701       .  A
C529        C534   1.384       .  A
C529        C530   1.400       .  A
C530        C531   1.401       .  A
C530        H541   1.083       .  S
C531        C540   1.368       .  A
C531        C532   1.387       .  A
C532        S538   1.711       .  A
C532        C533   1.403       .  A
C533        C534   1.404       .  A
C533        H542   1.083       .  S
C534        C537   1.372       .  A
S535        C536   1.735       .  A
C536        C537   1.394       .  A
C537        H543   1.083       .  S
S538        C539   1.721       .  A
C539        C540   1.383       .  A
C540        H544   1.083       .  S
C545        S551   1.701       .  A
C545        C550   1.384       .  A
C545        C546   1.403       .  A
C546        C547   1.402       .  A
C546        H557   1.083       .  S
C547        C556   1.374       .  A
C547        C548   1.386       .  A
C548        S554   1.710       .  A
C548        C549   1.406       .  A
C549        C550   1.406       .  A
C549        H558   1.083       .  S
C550        C553   1.379       .  A
S551        C552   1.735       .  A
C552        C553   1.396       .  A
C553        H559   1.081       .  S
S554        C555   1.724       .  A
C555        C556   1.386       .  A
C556        H560   1.083       .  S
