geometry optimzed in LAMMPS
_audit_creation_date              2020-11-30 
_audit_creation_method            'lammps2cif' 
_symmetry_space_group_name_H-M    'P1' 
_symmetry_Int_Tables_number       1 
_symmetry_cell_setting            triclinic 
loop_ 
_symmetry_equiv_pos_as_xyz 
  x,y,z 
_cell_length_a                    32.81240243 
_cell_length_b                    33.79943351609252 
_cell_length_c                    45.677980997766355 
_cell_angle_alpha                 89.87769941440621 
_cell_angle_beta                  90.70298063623446 
_cell_angle_gamma                 81.49113120687068 
loop_ 
_atom_site_label 
_atom_site_type_symbol 
_atom_site_fract_x 
_atom_site_fract_y 
_atom_site_fract_z 
_atom_site_charge 
O1          O  0.19056739  0.35116854  0.60688135    -0.77600
C2          C  0.32440423  0.33559585  0.60877978     0.83400
O3          O  0.25847828  0.22962560  0.55035145    -0.78700
O4          O  0.33544508  0.21052186  0.64138684    -0.80200
O5          O  0.21902277  0.25735809  0.68703599    -0.80000
O6          O  0.16197617  0.31682056  0.64081918    -0.78600
Zn7        Zn  0.24023468  0.31200667  0.59281825     1.55700
O8          O  0.28291357  0.27235199  0.68646379    -0.80000
Cd9        Cd  0.20028610  0.26330993  0.64368109     1.59700
Cd10       Cd  0.25480299  0.21490847  0.59408366     1.59600
O11         O  0.16628915  0.21860746  0.63198555    -0.80000
O12         O  0.24821811  0.26468263  0.61778400    -1.90500
Cd13       Cd  0.29819151  0.26509286  0.64277450     1.59900
O14         O  0.20390452  0.18580586  0.59712119    -0.80000
O15         O  0.33176011  0.30844843  0.62840331    -0.78600
C16         C  0.24624082  0.26231893  0.53672008     0.83900
C17         C  0.16275195  0.34848617  0.62586098     0.83600
O18         O  0.29068456  0.34036413  0.59414688    -0.77600
C19         C  0.25143837  0.26475783  0.70034666     0.84400
O20         O  0.23485860  0.29519825  0.55016635    -0.77700
C21         C  0.17197140  0.19075130  0.61301903     0.84500
C22         C  0.33351976  0.17807055  0.62770562     0.84800
O23         O  0.30511119  0.17492294  0.60888755    -0.80100
C24         C  0.03083603  0.48276597  0.63654006     0.30900
C25         C  0.46289227  0.04137197  0.63725739     0.30900
C26         C  0.49300855  0.47206214  0.62033606    -0.05300
C27         C  0.01223594  0.49423876  0.66647951    -0.06100
C28         C  0.03688448  0.02216750  0.62367929    -0.06000
C29         C  0.45798973  0.50127705  0.62046200    -0.05300
C30         C  0.47803321  0.02359518  0.66696070    -0.06100
C31         C  0.00214146  0.05153235  0.62377770    -0.06000
C32         C  0.42711856  0.48431635  0.60638777    -0.31400
N33         N  0.44132755  0.44562604  0.59983047     0.15100
C34         C  0.48213597  0.43894249  0.60635347    -0.31400
H35         H  0.50159466  0.41074646  0.60281054     0.17100
C36         C  0.46716893  0.03018636  0.69574505    -0.30300
N37         N  0.99408923  0.50609703  0.71266087     0.13900
C38         C  0.02173783  0.48379368  0.69516432    -0.30300
C39         C  0.01413741  0.08631365  0.61331056    -0.30600
N40         N  0.05515760  0.07970683  0.60806986     0.14400
H41         H  0.99486561  0.11496017  0.61083274     0.17000
C42         C  0.06866374  0.04020178  0.61263081    -0.30600
H43         H  0.10001741  0.02651167  0.60930792     0.17000
H44         H  0.04700889  0.46176399  0.70275091     0.17000
H45         H  0.39569833  0.49766128  0.60237156     0.17100
H46         H  0.44224020  0.05193106  0.70369098     0.17000
O47         O  0.03963137  0.08422569  0.94156210    -0.77600
C48         C  0.41223803  0.09108195  0.91594192     0.83400
O49         O  0.00576217  0.47322300  0.99297507    -0.78700
O50         O  0.41326365  0.46422303  0.91038838    -0.80200
O51         O  0.02507079  0.00965811  0.85313964    -0.80000
O52         O  0.07451810  0.04979487  0.90610444    -0.78600
Zn53       Zn  0.99008306  0.05589386  0.94813149     1.55700
O54         O  0.46111069  0.00004783  0.85270981    -0.80000
Cd55       Cd  0.04140011  0.00540165  0.89678071     1.59700
Cd56       Cd  0.00429774  0.45760573  0.94877936     1.59600
O57         O  0.08119503  0.45003753  0.89993663    -0.80000
O58         O  0.99448407  0.00833443  0.92379418    -1.90500
Cd59       Cd  0.44743029  0.00677314  0.89676500     1.59900
O60         O  0.05672714  0.41858964  0.93722312    -0.80000
O61         O  0.41015568  0.06072486  0.89989850    -0.78600
C62         C  0.99596549  0.00950790  0.00664132     0.83900
C63         C  0.07017150  0.07846284  0.92424339     0.83600
O64         O  0.44115512  0.09153733  0.93482309    -0.77600
C65         C  0.99374019  0.50387010  0.83859121     0.84400
O66         O  0.98841566  0.04206864  0.99194006    -0.77700
C67         C  0.08286520  0.42000584  0.91689120     0.84500
C68         C  0.42013237  0.43586842  0.92902095     0.84800
O69         O  0.45249986  0.43054104  0.94508520    -0.80100
C70         C  0.28292053  0.22873822  0.90275076     0.30900
C71         C  0.21593956  0.28728912  0.90185237     0.30900
C72         C  0.28590175  0.26490521  0.92270069    -0.05300
C73         C  0.27267043  0.24926135  0.87281319    -0.06100
C74         C  0.24180172  0.21605662  0.91135675    -0.06000
C75         C  0.25095611  0.29449604  0.92269689    -0.05300
C76         C  0.23793754  0.27877968  0.87222093    -0.06100
C77         C  0.20785365  0.24570029  0.91056430    -0.06000
C78         C  0.26431177  0.33035557  0.92874889    -0.31400
N79         N  0.30571928  0.32422972  0.93172750     0.15100
C80         C  0.31908334  0.28503951  0.92716250    -0.31400
H81         H  0.35095215  0.27306322  0.92319357     0.17100
C82         C  0.22815551  0.28639359  0.84310542    -0.30300
N83         N  0.25705035  0.26467656  0.82625544     0.13900
C84         C  0.28447545  0.24197461  0.84420601    -0.30300
C85         C  0.17369577  0.22795738  0.91572435    -0.30600
N86         N  0.18618252  0.18844217  0.92033058     0.14400
H87         H  0.14193191  0.24221755  0.91467907     0.17000
C88         C  0.22770965  0.18064627  0.91745362    -0.30600
H89         H  0.24592432  0.15122571  0.91860244     0.17000
H90         H  0.30934428  0.21972493  0.83685843     0.17000
H91         H  0.24535694  0.35936640  0.92773811     0.17100
H92         H  0.20076403  0.30460977  0.83454428     0.17000
O93         O  0.05196849  0.42659094  0.10732669    -0.77600
C94         C  0.42220834  0.44165960  0.12083930     0.83400
O95         O  0.48787923  0.04269379  0.05033471    -0.78700
O96         O  0.40777244  0.06650296  0.14092044    -0.80200
O97         O  0.03398395  0.01219989  0.19338467    -0.80000
O98         O  0.08279731  0.45766537  0.14218451    -0.78600
Zn99       Zn  0.50213999  0.46468726  0.09744506     1.55700
O100        O  0.46019319  0.00743404  0.19133277    -0.80000
Cd101      Cd  0.04670527  0.00916773  0.14875961     1.59700
Cd102      Cd  0.48862152  0.05739255  0.09458638     1.59600
O103        O  0.07724150  0.05552592  0.13813714    -0.80000
O104        O  0.49446356  0.01006729  0.12114958    -1.90500
Cd105      Cd  0.44561752  0.01295371  0.14687551     1.59900
O106        O  0.03936145  0.08806354  0.10234064    -0.80000
O107        O  0.41713546  0.46918851  0.13999862    -0.78600
C108        C  0.49580111  0.00883298  0.03779346     0.83900
C109        C  0.08163737  0.42790275  0.12537353     0.83600
O110        O  0.45315901  0.43705544  0.10393658    -0.77600
C111        C  0.49379863  0.00741884  0.20565707     0.84400
O112        O  0.50274331  0.47849669  0.05380461    -0.77700
C113        C  0.07064600  0.08373379  0.11938536     0.84500
C114        C  0.40813393  0.09584627  0.12343412     0.84800
O115        O  0.43624285  0.09621405  0.10447673    -0.80100
C116        C  0.21385091  0.29318176  0.13494698     0.30900
C117        C  0.27989304  0.23376700  0.13436040     0.30900
C118        C  0.25168685  0.30291026  0.11875980    -0.05300
C119        C  0.23128010  0.27863937  0.16526606    -0.06100
C120        C  0.20637798  0.25395733  0.12058971    -0.06000
C121        C  0.28580979  0.27270745  0.11864765    -0.05300
C122        C  0.26558929  0.24898033  0.16498318    -0.06100
C123        C  0.24034633  0.22381598  0.11995767    -0.06000
C124        C  0.31983588  0.29171129  0.11549846    -0.31400
N125        N  0.30728940  0.33131969  0.11185919     0.15100
C126        C  0.26594943  0.33866467  0.11448250    -0.31400
H127        H  0.24824181  0.36817868  0.11633077     0.17100
C128        C  0.27649700  0.24015037  0.19383669    -0.30300
N129        N  0.24886270  0.26224035  0.21151642     0.13900
C130        C  0.22107442  0.28570390  0.19421053    -0.30300
C131        C  0.22566090  0.18816260  0.11613146    -0.30600
N132        N  0.18409745  0.19564269  0.11506371     0.14400
H133        H  0.24361868  0.15864001  0.11666604     0.17000
C134        C  0.17201200  0.23523086  0.11869538    -0.30600
H135        H  0.14054270  0.24867123  0.12277831     0.17000
H136        H  0.19527570  0.30643753  0.20211784     0.17000
H137        H  0.35162743  0.27854086  0.11921052     0.17100
H138        H  0.30198506  0.21845913  0.20147722     0.17000
C139        C  0.46489790  0.03777495  0.40826591     0.30900
C140        C  0.03118309  0.47738601  0.40843974     0.30900
C141        C  0.46150385  0.00259730  0.42879797    -0.05300
C142        C  0.47447978  0.01746218  0.37840882    -0.06100
C143        C  0.00357194  0.04567802  0.42781802    -0.06000
C144        C  0.48964048  0.46806021  0.42248210    -0.05300
C145        C  0.01601864  0.99559671  0.38010762    -0.06100
C146        C  0.03676850  0.01434684  0.42850149    -0.06000
C147        C  0.47398133  0.43490220  0.43245879    -0.31400
N148        N  0.43272064  0.44441112  0.43534656     0.15100
C149        C  0.42181531  0.48383824  0.42953487    -0.31400
H150        H  0.39566131  0.99874505  0.43111200     0.17100
C151        C  0.01833524  0.47900042  0.35011157    -0.30300
N152        N  0.49113597  0.00155790  0.33206851     0.13900
C153        C  0.46641827  0.02740236  0.34928394    -0.30300
C154        C  0.07105886  0.03163793  0.43633131    -0.30600
N155        N  0.06035982  0.07185451  0.43797682     0.14400
H156        H  0.10242398  0.01681136  0.43814140     0.17000
C157        C  0.01942554  0.08047377  0.43270152    -0.30600
H158        H  0.00290513  0.11030422  0.42944164     0.17000
H159        H  0.44645017  0.05351810  0.34109293     0.17000
H160        H  0.49014134  0.40503549  0.43591336     0.17100
H161        H  0.04261561  0.45622378  0.34267213     0.17000
O162        O  0.20535485  0.18149623  0.44399776    -0.77600
C163        C  0.33295244  0.17115833  0.42121560     0.83400
O164        O  0.23651045  0.29455787  0.49040181    -0.78700
O165        O  0.32935253  0.30039917  0.40784376    -0.80200
O166        O  0.21563631  0.25307871  0.35116221    -0.80000
O167        O  0.16851391  0.21027920  0.40635954    -0.78600
Zn168      Zn  0.25370259  0.21104945  0.44893496     1.55700
O169        O  0.28242351  0.25794450  0.35244661    -0.80000
Cd170      Cd  0.19944703  0.25655986  0.39517558     1.59700
Cd171      Cd  0.24032194  0.30582698  0.44595149     1.59600
O172        O  0.15933053  0.30916801  0.39929075    -0.80000
O173        O  0.24784595  0.25615457  0.42200429    -1.90500
Cd174      Cd  0.29733286  0.25401107  0.39689476     1.59900
O175        O  0.18970201  0.34466662  0.43192451    -0.80000
O176        O  0.33430444  0.19961746  0.40309465    -0.78600
C177        C  0.24570568  0.26182902  0.50448250     0.83900
C178        C  0.17447586  0.18391908  0.42656448     0.83600
O179        O  0.30497033  0.17215605  0.44039568    -0.77600
C180        C  0.24926417  0.25578033  0.33806477     0.84400
O181        O  0.25476456  0.22849394  0.49135019    -0.77700
C182        C  0.16075060  0.34107448  0.41378085     0.84500
C183        C  0.32192729  0.32978423  0.42545918     0.84800
O184        O  0.28978735  0.33512161  0.44106633    -0.80100
C185        C  0.15377710  0.12234304  0.44890827    -0.20400
C186        C  0.14471726  0.15548013  0.42997397    -0.08500
C187        C  0.10694932  0.16109545  0.41451698     0.30400
C188        C  0.07943712  0.13384662  0.41763930    -0.20400
C189        C  0.08849458  0.10058590  0.43638057    -0.08500
C190        C  0.12598580  0.09507123  0.45208765     0.30400
F191        F  0.13557469  0.06363187  0.47068131    -0.19000
H192        H  0.18254212  0.11732820  0.46117915     0.18800
H193        H  0.05131031  0.13841895  0.40467707     0.18800
F194        F  0.09631071  0.19287115  0.39632590    -0.19000
C195        C  0.05640380  0.40291242  0.40285172    -0.20400
C196        C  0.06596832  0.44201449  0.40571259    -0.08500
C197        C  0.10772850  0.44663696  0.40267884     0.30400
C198        C  0.13856309  0.41372692  0.40617636    -0.20400
C199        C  0.12818393  0.37522482  0.40919885    -0.08500
C200        C  0.08692783  0.36972626  0.40582834     0.30400
F201        F  0.07601427  0.33252196  0.40618989    -0.19000
H202        H  0.02524771  0.39781475  0.39829007     0.18800
H203        H  0.17059629  0.41802446  0.40511887     0.18800
F204        F  0.11868028  0.48090146  0.39202818    -0.19000
C205        C  0.42646068  0.09511029  0.43715528    -0.20400
C206        C  0.42850536  0.07128787  0.41167842    -0.08500
C207        C  0.39438597  0.07693564  0.39221016     0.30400
C208        C  0.36345850  0.10976128  0.39544196    -0.20400
C209        C  0.36426795  0.13565361  0.41923631    -0.08500
C210        C  0.39499467  0.12729060  0.44076332     0.26800
F211        F  0.39513924  0.15077743  0.46482971    -0.19000
H212        H  0.44972154  0.08913765  0.45424515     0.18800
H213        H  0.33823803  0.11451143  0.37968544     0.18800
F214        F  0.38871771  0.04942906  0.37163552    -0.19000
C215        C  0.40855129  0.38877648  0.40991731    -0.20400
C216        C  0.40522419  0.41552145  0.43348489    -0.08500
C217        C  0.37451262  0.41435713  0.45424205     0.30400
C218        C  0.34772092  0.38607191  0.45164248    -0.20400
C219        C  0.35103202  0.35894743  0.42806660    -0.08500
C220        C  0.38161882  0.36082100  0.40702399     0.30400
F221        F  0.38495614  0.33649180  0.38329418    -0.19000
H222        H  0.43178072  0.39016558  0.39344151     0.18800
H223        H  0.32441100  0.38538946  0.46815160     0.18800
F224        F  0.37096803  0.44012259  0.47711729    -0.19000
C225        C  0.21225799  0.26079282  0.28934617    -0.20400
C226        C  0.24958379  0.25686897  0.30536679    -0.08500
C227        C  0.28671573  0.25442193  0.28972128     0.30400
C228        C  0.28618893  0.25602291  0.25904153    -0.20400
C229        C  0.24885355  0.26045039  0.24314967    -0.08500
C230        C  0.21178657  0.26264236  0.25868391     0.30400
F231        F  0.17509056  0.26536440  0.24425362    -0.19000
H232        H  0.18315631  0.26256674  0.30056329     0.18800
H233        H  0.31511755  0.25433421  0.24761907     0.18800
F234        F  0.32368764  0.25028472  0.30392173    -0.19000
C235        C  0.46610511  0.51340963  0.25610451    -0.20400
C236        C  0.49348815  0.00502822  0.23828486    -0.08500
C237        C  0.53022346  0.99518438  0.25481560     0.30400
C238        C  0.52924206  0.99380027  0.28547393    -0.20400
C239        C  0.49181185  0.00229118  0.30043691    -0.08500
C240        C  0.46627183  0.51479337  0.28674257     0.30400
F241        F  0.43051995  0.51382796  0.30117191    -0.19000
H242        H  0.43710542  0.51236443  0.24476295     0.18800
H243        H  0.55797819  0.98667348  0.29757503     0.18800
F244        F  0.56715995  0.98641285  0.24145528    -0.19000
C245        C  0.12106099  0.17274725  0.09781381    -0.20400
C246        C  0.15690072  0.16648440  0.11513444    -0.08500
C247        C  0.16454954  0.13294785  0.13359354     0.30400
C248        C  0.13644721  0.10601802  0.13465639    -0.20400
C249        C  0.10028298  0.11220727  0.11741881    -0.08500
C250        C  0.09287540  0.14586333  0.09878610     0.30400
F251        F  0.05828975  0.15331354  0.08184046    -0.19000
H252        H  0.11493512  0.19872470  0.08363837     0.18800
H253        H  0.14286448  0.08055554  0.14929832     0.18800
F254        F  0.19812970  0.12722192  0.15158924    -0.19000
C255        C  0.14686259  0.39402282  0.14844022    -0.20400
C256        C  0.11538926  0.39389811  0.12731589    -0.08500
C257        C  0.11690622  0.36123744  0.10820330     0.30400
C258        C  0.14838133  0.32899920  0.11098433    -0.20400
C259        C  0.17835522  0.32758813  0.13346736    -0.08500
C260        C  0.17837446  0.36166265  0.15118785     0.30400
F261        F  0.20982240  0.36474392  0.17020721    -0.19000
H262        H  0.14745826  0.41943758  0.16275783     0.18800
H263        H  0.14968330  0.30577995  0.09467224     0.18800
F264        F  0.08860937  0.36056851  0.08633860    -0.19000
C265        C  0.34503034  0.13132305  0.14717331    -0.20400
C266        C  0.37539683  0.13073859  0.12571236    -0.08500
C267        C  0.37398291  0.16374356  0.10675270     0.30400
C268        C  0.34374186  0.19690801  0.10997492    -0.20400
C269        C  0.31473808  0.19874619  0.13259257    -0.08500
C270        C  0.31468473  0.16450798  0.15030146     0.30400
F271        F  0.28408292  0.16203485  0.16962757    -0.19000
H272        H  0.34433857  0.10580674  0.16144045     0.18800
H273        H  0.34241633  0.22034816  0.09376130     0.18800
F274        F  0.40119378  0.16391734  0.08461597    -0.19000
C275        C  0.39638860  0.38416589  0.09659109    -0.20400
C276        C  0.39127918  0.41441950  0.11789995    -0.08500
C277        C  0.35645263  0.41817203  0.13603265     0.30400
C278        C  0.32814691  0.39153332  0.13321613    -0.20400
C279        C  0.33415802  0.36078057  0.11255933    -0.08500
C280        C  0.36809497  0.35746753  0.09398820     0.30400
F281        F  0.37369745  0.32837718  0.07337366    -0.19000
H282        H  0.42251501  0.38082794  0.08207132     0.18800
H283        H  0.30217538  0.39402541  0.14785406     0.18800
F284        F  0.34992024  0.44696548  0.15683102    -0.19000
C285        C  0.09641599  0.13969537  0.94263049    -0.20400
C286        C  0.10146781  0.10564785  0.92469245    -0.08500
C287        C  0.13637807  0.09834487  0.90660690     0.30400
C288        C  0.16487343  0.12493754  0.90621291    -0.20400
C289        C  0.15903872  0.15939278  0.92340533    -0.08500
C290        C  0.12490621  0.16649986  0.94191627     0.30400
F291        F  0.11923500  0.19937078  0.95924554    -0.19000
H292        H  0.07009410  0.14597273  0.95684785     0.18800
H293        H  0.19081390  0.11943027  0.89159277     0.18800
F294        F  0.14283028  0.06601962  0.88874985    -0.19000
C295        C  0.35174475  0.12855671  0.88887038    -0.20400
C296        C  0.38029991  0.12659739  0.91224357    -0.08500
C297        C  0.37715853  0.15833062  0.93223390     0.30400
C298        C  0.34630333  0.19105250  0.92881511    -0.20400
C299        C  0.31840647  0.19403948  0.90488495    -0.08500
C300        C  0.32083751  0.16148222  0.88541881     0.30400
F301        F  0.29209940  0.16031643  0.86395540    -0.19000
H302        H  0.35277745  0.10415814  0.87341385     0.18800
H303        H  0.34351168  0.21300727  0.94609020     0.18800
F304        F  0.40282893  0.15728750  0.95584980    -0.19000
C305        C  0.12325484  0.35527675  0.93339171    -0.20400
C306        C  0.11602266  0.38593735  0.91247094    -0.08500
C307        C  0.14154755  0.38415937  0.88775118     0.30400
C308        C  0.17304093  0.35214163  0.88409648    -0.20400
C309        C  0.17923585  0.32036293  0.90428781    -0.08500
C310        C  0.15500803  0.32344852  0.92979341     0.30400
F311        F  0.16316134  0.29671671  0.95207098    -0.19000
H312        H  0.10508967  0.35646057  0.95309816     0.18800
H313        H  0.19385136  0.35390765  0.86624303     0.18800
F314        F  0.13688923  0.41368565  0.86724248    -0.19000
C315        C  0.36987491  0.34582696  0.94859653    -0.20400
C316        C  0.33227349  0.35421587  0.93328801    -0.08500
C317        C  0.32295117  0.39048805  0.91779165     0.30400
C318        C  0.35133714  0.41724001  0.91720694    -0.20400
C319        C  0.38958284  0.40828891  0.93175181    -0.08500
C320        C  0.39842009  0.37243708  0.94786816     0.30400
F321        F  0.43505098  0.36226912  0.96209841    -0.19000
H322        H  0.37745757  0.31803294  0.96065633     0.18800
H323        H  0.34364997  0.44463153  0.90467881     0.18800
F324        F  0.28772109  0.39920917  0.90172034    -0.19000
C325        C  0.45634052  0.50727736  0.75999747    -0.20400
C326        C  0.99400927  0.50505008  0.74413426    -0.08500
C327        C  0.03069887  0.00342496  0.76155455     0.30400
C328        C  0.02957288  0.00356503  0.79212187    -0.20400
C329        C  0.99331777  0.50378065  0.80605093    -0.08500
C330        C  0.45512252  0.50707918  0.79061599     0.30400
F331        F  0.41798644  0.50927022  0.80375740    -0.19000
H332        H  0.42780609  0.50880553  0.74760806     0.18800
H333        H  0.05834982  0.00243390  0.80417800     0.18800
F334        F  0.06744715  0.00300298  0.74816705    -0.19000
C335        C  0.29077772  0.26021322  0.74783306    -0.20400
C336        C  0.25272168  0.26420724  0.73278929    -0.08500
C337        C  0.21624636  0.26741524  0.74909581     0.30400
C338        C  0.21802214  0.26703259  0.77965208    -0.20400
C339        C  0.25601023  0.26338478  0.79471127    -0.08500
C340        C  0.29251465  0.25961872  0.77845466     0.30400
F341        F  0.32980640  0.25667333  0.79208614    -0.19000
H342        H  0.31935349  0.25748315  0.73587569     0.18800
H343        H  0.18948669  0.26942015  0.79159350     0.18800
F344        F  0.17871745  0.27175791  0.73563741    -0.19000
C345        C  0.43486228  0.11421891  0.64752829    -0.20400
C346        C  0.42685557  0.07575291  0.63978935    -0.08500
C347        C  0.38514866  0.07085316  0.63634779     0.30400
C348        C  0.35496604  0.10421313  0.63179123    -0.20400
C349        C  0.36502309  0.14302846  0.63402536    -0.08500
C350        C  0.40470324  0.14768635  0.64402055     0.30400
F351        F  0.41488860  0.18448653  0.64946933    -0.19000
H352        H  0.46499100  0.11868160  0.65553707     0.18800
H353        H  0.32338239  0.09975147  0.62767915     0.18800
F354        F  0.37256841  0.03511938  0.64132528    -0.19000
C355        C  0.13991196  0.42159110  0.63366505    -0.20400
C356        C  0.13021464  0.38271042  0.63104149    -0.08500
C357        C  0.08967985  0.37631372  0.63650123     0.30400
C358        C  0.05890407  0.40876104  0.64106361    -0.20400
C359        C  0.06703258  0.44831017  0.63824835    -0.08500
C360        C  0.10881947  0.45389022  0.63886820     0.30400
F361        F  0.12014625  0.48861440  0.64840218    -0.19000
H362        H  0.17174487  0.42661721  0.63313140     0.18800
H363        H  0.02831499  0.40281124  0.64614927     0.18800
F364        F  0.07950669  0.33880710  0.63665435    -0.19000
C365        C  0.39461923  0.35370926  0.61718015    -0.20400
C366        C  0.35597522  0.36204178  0.60316889    -0.08500
C367        C  0.34807607  0.39608129  0.58484844     0.30400
C368        C  0.37737063  0.42219785  0.58226962    -0.20400
C369        C  0.41516164  0.41485390  0.59759894    -0.08500
C370        C  0.42377182  0.37958579  0.61459237     0.30400
F371        F  0.45898056  0.37136205  0.63074572    -0.19000
H372        H  0.40198836  0.32763260  0.63114526     0.18800
H373        H  0.36997082  0.44901095  0.56908904     0.18800
F374        F  0.31154491  0.40514547  0.57032695    -0.19000
C375        C  0.11993932  0.10129589  0.59177956    -0.20400
C376        C  0.08186321  0.10997132  0.60589468    -0.08500
C377        C  0.07306533  0.14652796  0.62111022     0.30400
C378        C  0.10210540  0.17281444  0.62267964    -0.20400
C379        C  0.14072320  0.16342891  0.60946730    -0.08500
C380        C  0.14914459  0.12748515  0.59357066     0.30400
F381        F  0.18616835  0.11668211  0.58069332    -0.19000
H382        H  0.12760067  0.07352187  0.57995772     0.18800
H383        H  0.09460530  0.20024252  0.63497574     0.18800
F384        F  0.03764781  0.15600596  0.63621106    -0.19000
O385        O  0.19227203  0.85188055  0.60728485    -0.77600
C386        C  0.32571486  0.83652003  0.60892537     0.83400
O387        O  0.26132163  0.73117186  0.55003033    -0.78700
O388        O  0.33726435  0.71067184  0.64184642    -0.80200
O389        O  0.22029008  0.75746423  0.68674607    -0.80000
O390        O  0.16400152  0.81688056  0.64093200    -0.78600
Zn391      Zn  0.24184552  0.81269502  0.59300132     1.55700
O392        O  0.28395493  0.77310096  0.68683445    -0.80000
Cd393      Cd  0.20226467  0.76343459  0.64338046     1.59700
Cd394      Cd  0.25683563  0.71561574  0.59367333     1.59600
O395        O  0.16836482  0.71893395  0.63134652    -0.80000
O396        O  0.25026853  0.76510179  0.61773306    -1.90500
Cd397      Cd  0.30004297  0.76555453  0.64307305     1.59900
O398        O  0.20557435  0.68647062  0.59615425    -0.80000
O399        O  0.33332771  0.80932949  0.62854473    -0.78600
C400        C  0.24890847  0.76401673  0.53658431     0.83900
C401        C  0.16458595  0.84881813  0.62628422     0.83600
O402        O  0.29199945  0.84106752  0.59433537    -0.77600
C403        C  0.25218626  0.76544727  0.70039000     0.84400
O404        O  0.23676275  0.79654727  0.55024046    -0.77700
C405        C  0.17371243  0.69134456  0.61216871     0.84500
C406        C  0.33518785  0.67831893  0.62802015     0.84800
O407        O  0.30698367  0.67559560  0.60891796    -0.80100
C408        C  0.03109376  0.98153894  0.63745176     0.30900
C409        C  0.46272040  0.53977601  0.63793341     0.30900
C410        C  0.49281174  0.97417940  0.61856629    -0.05300
C411        C  0.01299297  0.99373453  0.66742329    -0.06100
C412        C  0.03728885  0.52365057  0.62354802    -0.06000
C413        C  0.45802214  0.00362434  0.61894173    -0.05300
C414        C  0.47858796  0.52309217  0.66778421    -0.06100
C415        C  0.00272283  0.55327537  0.62375282    -0.06000
C416        C  0.42673635  0.98699040  0.60505107    -0.31400
N417        N  0.44070784  0.94836362  0.59818724     0.15100
C418        C  0.48157243  0.94138865  0.60440459    -0.31400
H419        H  0.50049488  0.91281049  0.60117205     0.17100
C420        C  0.46763806  0.53010773  0.69647926    -0.30300
N421        N  0.99473386  0.00612112  0.71355623     0.13900
C422        C  0.02253400  0.98370833  0.69619598    -0.30300
C423        C  0.01512544  0.58795641  0.61336151    -0.30600
N424        N  0.05610694  0.58096593  0.60807249     0.14400
H425        H  0.99628051  0.61681264  0.61080469     0.17000
C426        C  0.06930489  0.54143008  0.61254041    -0.30600
H427        H  0.10057519  0.52754941  0.60897707     0.17000
H428        H  0.04770503  0.96166281  0.70389770     0.17000
H429        H  0.39508726  0.00029960  0.60182029     0.17100
H430        H  0.44233162  0.55162540  0.70418252     0.17000
O431        O  0.04101978  0.58086213  0.94118284    -0.77600
C432        C  0.40952296  0.59274326  0.91735325     0.83400
O433        O  0.00416063  0.97569166  0.99396997    -0.78700
O434        O  0.41498182  0.96281132  0.90926628    -0.80200
O435        O  0.02696358  0.50802330  0.85209927    -0.80000
O436        O  0.07664991  0.54739085  0.90562468    -0.78600
Zn437      Zn  0.99159791  0.55300501  0.94710554     1.55700
O438        O  0.45883296  0.50251719  0.85359758    -0.80000
Cd439      Cd  0.04340410  0.50319447  0.89578009     1.59700
Cd440      Cd  0.00234334  0.96023571  0.94982234     1.59600
O441        O  0.07934557  0.95224518  0.90103890    -0.80000
O442        O  0.99648357  0.50570727  0.92276289    -1.90500
Cd443      Cd  0.44533544  0.50867938  0.89786534     1.59900
O444        O  0.05453265  0.92092964  0.93822697    -0.80000
O445        O  0.40767270  0.56222500  0.90143074    -0.78600
C446        C  0.99696726  0.50711004  0.00548383     0.83900
C447        C  0.07177411  0.57565722  0.92410085     0.83600
O448        O  0.43863812  0.59378142  0.93603032    -0.77600
C449        C  0.99183530  0.00596616  0.83950923     0.84400
O450        O  0.98921131  0.53949926  0.99066644    -0.77700
C451        C  0.08076285  0.92218124  0.91794355     0.84500
C452        C  0.42171292  0.93399998  0.92750925     0.84800
O453        O  0.45423180  0.92789447  0.94341495    -0.80100
C454        C  0.27945133  0.72942473  0.90320077     0.30900
C455        C  0.21252225  0.78812416  0.90249648     0.30900
C456        C  0.28337960  0.76636356  0.92193096    -0.05300
C457        C  0.26765322  0.74849020  0.87299791    -0.06100
C458        C  0.23899148  0.71730521  0.91342818    -0.06000
C459        C  0.24873562  0.79621032  0.92197120    -0.05300
C460        C  0.23296318  0.77801925  0.87245500    -0.06100
C461        C  0.20491880  0.74687466  0.91277554    -0.06000
C462        C  0.26286933  0.83201313  0.92700956    -0.31400
N463        N  0.30437303  0.82527083  0.92968647     0.15100
C464        C  0.31702237  0.78587742  0.92557899    -0.31400
H465        H  0.34865755  0.77314470  0.92165222     0.17100
C466        C  0.22364392  0.78629547  0.84331455    -0.30300
N467        N  0.25263347  0.76461922  0.82645324     0.13900
C468        C  0.27968806  0.74151151  0.84444071    -0.30300
C469        C  0.17096402  0.72865353  0.91779279    -0.30600
N470        N  0.18389326  0.68912212  0.92221950     0.14400
H471        H  0.13908226  0.74248777  0.91630770     0.17000
C472        C  0.22536915  0.68176479  0.91939549    -0.30600
H473        H  0.24380024  0.65242804  0.91998076     0.17000
H474        H  0.30495915  0.71968152  0.83718899     0.17000
H475        H  0.24425031  0.86122608  0.92592210     0.17100
H476        H  0.19686736  0.80545376  0.83473166     0.17000
O477        O  0.05318831  0.92658223  0.10732747    -0.77600
C478        C  0.41995649  0.93975931  0.11708936     0.83400
O479        O  0.48802790  0.54468591  0.05202180    -0.78700
O480        O  0.41215592  0.56731233  0.14519245    -0.80200
O481        O  0.02764164  0.50925167  0.19268816    -0.80000
O482        O  0.08559885  0.95703446  0.14176188    -0.78600
Zn483      Zn  0.50056263  0.96339864  0.09614155     1.55700
O484        O  0.46750347  0.51027253  0.19435915    -0.80000
Cd485      Cd  0.04256388  0.50902793  0.14848842     1.59700
Cd486      Cd  0.49061262  0.55817548  0.09642597     1.59600
O487        O  0.07334680  0.55586893  0.13894669    -0.80000
O488        O  0.49766982  0.51082900  0.12288988    -1.90500
Cd489      Cd  0.45045323  0.51387972  0.15027677     1.59900
O490        O  0.03801555  0.58691892  0.10136110    -0.80000
O491        O  0.41312956  0.96827178  0.13534417    -0.78600
C492        C  0.49553459  0.51103363  0.03917986     0.83900
C493        C  0.08352860  0.92744388  0.12489208     0.83600
O494        O  0.45221148  0.93457301  0.10149713    -0.77600
C495        C  0.50161476  0.51216284  0.20757972     0.84400
O496        O  0.50265343  0.97648646  0.05262389    -0.77700
C497        C  0.06826312  0.58312528  0.11936939     0.84500
C498        C  0.41182214  0.59637825  0.12739009     0.84800
O499        O  0.43899788  0.59641267  0.10774560    -0.80100
C500        C  0.21444532  0.79142556  0.13413264     0.30900
C501        C  0.28071045  0.73219615  0.13448385     0.30900
C502        C  0.25129090  0.79980549  0.11614024    -0.05300
C503        C  0.23349174  0.77940837  0.16454763    -0.06100
C504        C  0.20657071  0.75097299  0.12204924    -0.06000
C505        C  0.28567282  0.76983367  0.11668985    -0.05300
C506        C  0.26779327  0.74981204  0.16468617    -0.06100
C507        C  0.24053016  0.72098791  0.12193672    -0.06000
C508        C  0.31933894  0.78914860  0.11262079    -0.31400
N509        N  0.30638442  0.82830548  0.10735855     0.15100
C510        C  0.26504791  0.83533043  0.10999733    -0.31400
H511        H  0.24704417  0.86481149  0.11101709     0.17100
C512        C  0.27911606  0.74226439  0.19362156    -0.30300
N513        N  0.25185941  0.76525339  0.21106893     0.13900
C514        C  0.22381214  0.78788048  0.19341782    -0.30300
C515        C  0.22628792  0.68531317  0.11721366    -0.30600
N516        N  0.18463658  0.69265869  0.11533416     0.14400
H517        H  0.24463079  0.65595839  0.11725001     0.17000
C518        C  0.17231313  0.73237054  0.11889999    -0.30600
H519        H  0.14063715  0.74597050  0.12180963     0.17000
H520        H  0.19798939  0.80883024  0.20096914     0.17000
H521        H  0.35116210  0.77689509  0.11721110     0.17100
H522        H  0.30438860  0.72046501  0.20148505     0.17000
C523        C  0.46560334  0.53915939  0.41035246     0.30900
C524        C  0.03001042  0.97729031  0.41002768     0.30900
C525        C  0.45677361  0.49919951  0.42208294    -0.05300
C526        C  0.48422071  0.52819018  0.38003957    -0.06100
C527        C  0.00829137  0.54905133  0.41931271    -0.06000
C528        C  0.49534726  0.97181137  0.42945482    -0.05300
C529        C  0.00954774  0.48852419  0.37889113    -0.06100
C530        C  0.04130530  0.51806093  0.41961237    -0.06000
C531        C  0.48035513  0.93804700  0.43901470    -0.31400
N532        N  0.43898230  0.94611347  0.44144472     0.15100
C533        C  0.42722520  0.98529639  0.43533280    -0.31400
H534        H  0.39043984  0.49911049  0.42787072     0.17100
C535        C  0.02733709  0.98814293  0.35147401    -0.30300
N536        N  0.50370872  0.51595533  0.33391315     0.13900
C537        C  0.47731995  0.54006582  0.35118565    -0.30300
C538        C  0.07530882  0.53473522  0.42880874    -0.30600
N539        N  0.06449275  0.57493234  0.43142330     0.14400
H540        H  0.10615407  0.51929973  0.43220386     0.17000
C541        C  0.02341038  0.58366728  0.42604860    -0.30600
H542        H  0.00600670  0.61341997  0.42556561     0.17000
H543        H  0.45487148  0.56436453  0.34303181     0.17000
H544        H  0.49730295  0.90822967  0.44097163     0.17100
H545        H  0.05100145  0.96483536  0.34386383     0.17000
O546        O  0.20968453  0.68463976  0.44330350    -0.77600
C547        C  0.33599726  0.67476643  0.42014180     0.83400
O548        O  0.23981353  0.79711473  0.49046403    -0.78700
O549        O  0.33447732  0.80363657  0.40893260    -0.80200
O550        O  0.21997690  0.75778836  0.35090018    -0.80000
O551        O  0.17330315  0.71381649  0.40559927    -0.78600
Zn552      Zn  0.25756178  0.71471791  0.44840205     1.55700
O553        O  0.28663095  0.76335875  0.35207253    -0.80000
Cd554      Cd  0.20378980  0.76049437  0.39486604     1.59700
Cd555      Cd  0.24402830  0.80941897  0.44604233     1.59600
O556        O  0.16312240  0.81252226  0.39954753    -0.80000
O557        O  0.25194624  0.76011218  0.42173026    -1.90500
Cd558      Cd  0.30152906  0.75823587  0.39659800     1.59900
O559        O  0.19303784  0.84832597  0.43221981    -0.80000
O560        O  0.33749179  0.70302891  0.40186380    -0.78600
C561        C  0.24900206  0.76416781  0.50432128     0.83900
C562        C  0.17903041  0.68729136  0.42568787     0.83600
O563        O  0.30846783  0.67632240  0.43965026    -0.77600
C564        C  0.25344829  0.76095266  0.33775368     0.84400
O565        O  0.25850859  0.73111772  0.49093986    -0.77700
C566        C  0.16399094  0.84437070  0.41421444     0.84500
C567        C  0.32685260  0.83274031  0.42681257     0.84800
O568        O  0.29398625  0.83830968  0.44168826    -0.80100
C569        C  0.15966553  0.62286648  0.44402658    -0.20400
C570        C  0.14907137  0.65908501  0.42866838    -0.08500
C571        C  0.10948143  0.66812861  0.41615064     0.30400
C572        C  0.08186080  0.64082072  0.41789294    -0.20400
C573        C  0.09252085  0.60399993  0.43248670    -0.08500
C574        C  0.13170571  0.59551758  0.44602767     0.30400
F575        F  0.14305982  0.56114057  0.46133057    -0.19000
H576        H  0.18984569  0.61542854  0.45419000     0.18800
H577        H  0.05240774  0.64830362  0.40682676     0.18800
F578        F  0.09718481  0.70345098  0.40217354    -0.19000
C579        C  0.05783486  0.90296722  0.40416290    -0.20400
C580        C  0.06562607  0.94259204  0.40756457    -0.08500
C581        C  0.10693801  0.94891395  0.40462797     0.30400
C582        C  0.13900120  0.91698897  0.40792060    -0.20400
C583        C  0.13033127  0.87775861  0.41017047    -0.08500
C584        C  0.08957714  0.87075877  0.40642440     0.30400
F585        F  0.08032231  0.83293885  0.40529315    -0.19000
H586        H  0.02753019  0.89656959  0.39856956     0.18800
H587        H  0.17062729  0.92265756  0.40728303     0.18800
F588        F  0.11636554  0.98452614  0.39536304    -0.19000
C589        C  0.42406890  0.59464749  0.43953571    -0.20400
C590        C  0.42908962  0.57255585  0.41325866    -0.08500
C591        C  0.39810666  0.58055364  0.39152254     0.30400
C592        C  0.36828198  0.61453520  0.39357434    -0.20400
C593        C  0.36674787  0.63888587  0.41843075    -0.08500
C594        C  0.39352768  0.62772722  0.44201077     0.26800
F595        F  0.39089782  0.64945572  0.46706977    -0.19000
H596        H  0.44424440  0.58677670  0.45822052     0.18800
H597        H  0.34564784  0.62129842  0.37612431     0.18800
F598        F  0.39500884  0.55470180  0.36926444    -0.19000
C599        C  0.42163651  0.88392415  0.42024119    -0.20400
C600        C  0.41205622  0.91646535  0.43931236    -0.08500
C601        C  0.37458372  0.92128321  0.45414288     0.30400
C602        C  0.34725315  0.89379630  0.45005943    -0.20400
C603        C  0.35662382  0.86120383  0.43084271    -0.08500
C604        C  0.39426639  0.85657587  0.41591279     0.30400
F605        F  0.40458783  0.82608794  0.39684901    -0.19000
H606        H  0.44991177  0.88033949  0.40793820     0.18800
H607        H  0.31854231  0.89830955  0.46187429     0.18800
F608        F  0.36452077  0.95255609  0.47256182    -0.19000
C609        C  0.21593703  0.76837411  0.28930534    -0.20400
C610        C  0.25347717  0.76207442  0.30506556    -0.08500
C611        C  0.29048038  0.75677195  0.28918078     0.30400
C612        C  0.28964336  0.75793624  0.25848146    -0.20400
C613        C  0.25210754  0.76453204  0.24277523    -0.08500
C614        C  0.21512297  0.76962072  0.25863401     0.30400
F615        F  0.17803476  0.77442113  0.24460956    -0.19000
H616        H  0.18690729  0.77235226  0.30075059     0.18800
H617        H  0.31855508  0.75397863  0.24691493     0.18800
F618        F  0.32758738  0.74983237  0.30317673    -0.19000
C619        C  0.45596474  0.01255545  0.25331827    -0.20400
C620        C  0.50272484  0.51328156  0.24028979    -0.08500
C621        C  0.53976234  0.51452067  0.25616697     0.30400
C622        C  0.53989124  0.51531726  0.28686847    -0.20400
C623        C  0.50322916  0.51576036  0.30238997    -0.08500
C624        C  0.45504478  0.01127042  0.28395880     0.30400
F625        F  0.41804386  0.01785633  0.29743423    -0.19000
H626        H  0.42711385  0.01975395  0.24133755     0.18800
H627        H  0.56862823  0.51603416  0.29864064     0.18800
F628        F  0.57593894  0.51501380  0.24219092    -0.19000
C629        C  0.12008188  0.67171441  0.09873850    -0.20400
C630        C  0.15725499  0.66346062  0.11453362    -0.08500
C631        C  0.16550212  0.62819951  0.13126742     0.30400
C632        C  0.13643835  0.60217215  0.13257923    -0.20400
C633        C  0.09877014  0.61079263  0.11726346    -0.08500
C634        C  0.09098056  0.64573101  0.10000189     0.30400
F635        F  0.05493848  0.65549497  0.08495745    -0.19000
H636        H  0.11339005  0.69878977  0.08574745     0.18800
H637        H  0.14333281  0.57541551  0.14590199     0.18800
F638        F  0.20055870  0.61983884  0.14758198    -0.19000
C639        C  0.14949229  0.89344544  0.14660880    -0.20400
C640        C  0.11704854  0.89311042  0.12632995    -0.08500
C641        C  0.11747522  0.85999459  0.10770583     0.30400
C642        C  0.14845993  0.82718904  0.11062851    -0.20400
C643        C  0.17916574  0.82603131  0.13256625    -0.08500
C644        C  0.18065707  0.86085378  0.14924709     0.30400
F645        F  0.21333557  0.86452345  0.16699594    -0.19000
H646        H  0.15121425  0.91927736  0.16030586     0.18800
H647        H  0.14892098  0.80336049  0.09486469     0.18800
F648        F  0.08862733  0.85946010  0.08620498    -0.19000
C649        C  0.34799570  0.63165300  0.15053076    -0.20400
C650        C  0.37899969  0.63110054  0.12952717    -0.08500
C651        C  0.37754431  0.66355261  0.11008529     0.30400
C652        C  0.34588075  0.69556186  0.11169972    -0.20400
C653        C  0.31589276  0.69744566  0.13361251    -0.08500
C654        C  0.31648666  0.66414348  0.15235544     0.30400
F655        F  0.28561636  0.66199491  0.17152772    -0.19000
H656        H  0.34763132  0.60659477  0.16529121     0.18800
H657        H  0.34440342  0.71788909  0.09468233     0.18800
F658        F  0.40609624  0.66427410  0.08889727    -0.19000
C659        C  0.39656938  0.88039641  0.09367256    -0.20400
C660        C  0.38952606  0.91211217  0.11373665    -0.08500
C661        C  0.35321861  0.91696127  0.13035304     0.30400
C662        C  0.32519724  0.89017290  0.12722711    -0.20400
C663        C  0.33290697  0.85808720  0.10779015    -0.08500
C664        C  0.36851455  0.85347954  0.09077390     0.30400
F665        F  0.37609824  0.82281182  0.07152218    -0.19000
H666        H  0.42400610  0.87608780  0.08041931     0.18800
H667        H  0.29813775  0.89357537  0.14085646     0.18800
F668        F  0.34494672  0.94696688  0.15007805    -0.19000
C669        C  0.09563855  0.63751480  0.94305483    -0.20400
C670        C  0.10231830  0.60344446  0.92517657    -0.08500
C671        C  0.13770163  0.59709851  0.90757220     0.30400
C672        C  0.16495183  0.62487023  0.90741237    -0.20400
C673        C  0.15744842  0.65938492  0.92452593    -0.08500
C674        C  0.12293796  0.66539763  0.94266628     0.30400
F675        F  0.11578876  0.69818852  0.95999399    -0.19000
H676        H  0.06889645  0.64302692  0.95693996     0.18800
H677        H  0.19130370  0.62010802  0.89312854     0.18800
F678        F  0.14579615  0.56458260  0.89001694    -0.19000
C679        C  0.34872474  0.62931427  0.89012365    -0.20400
C680        C  0.37709239  0.62781643  0.91359964    -0.08500
C681        C  0.37336916  0.65960935  0.93353407     0.30400
C682        C  0.34241926  0.69215806  0.92976786    -0.20400
C683        C  0.31501154  0.69488031  0.90555320    -0.08500
C684        C  0.31764637  0.66201206  0.88637949     0.30400
F685        F  0.28898242  0.66031638  0.86494252    -0.19000
H686        H  0.35007359  0.60474746  0.87478447     0.18800
H687        H  0.33919845  0.71432677  0.94692081     0.18800
F688        F  0.39857364  0.65879583  0.95738652    -0.19000
C689        C  0.12098513  0.85738690  0.93458972    -0.20400
C690        C  0.11362014  0.88780844  0.91348599    -0.08500
C691        C  0.13860061  0.88538425  0.88846887     0.30400
C692        C  0.16973063  0.85302114  0.88473909    -0.20400
C693        C  0.17598919  0.82142647  0.90509147    -0.08500
C694        C  0.15230641  0.82515134  0.93087482     0.30400
F695        F  0.16055785  0.79866730  0.95329433    -0.19000
H696        H  0.10323928  0.85905189  0.95450997     0.18800
H697        H  0.19022431  0.85430538  0.86662664     0.18800
F698        F  0.13367508  0.91455262  0.86768809    -0.19000
C699        C  0.36983412  0.84468438  0.94597259    -0.20400
C700        C  0.33181020  0.85446808  0.93132774    -0.08500
C701        C  0.32294378  0.89129842  0.91654299     0.30400
C702        C  0.35206881  0.91729468  0.91608979    -0.20400
C703        C  0.39064860  0.90696812  0.92998065    -0.08500
C704        C  0.39918634  0.87043627  0.94523589     0.30400
F705        F  0.43624203  0.85880551  0.95857178    -0.19000
H706        H  0.37713734  0.81643830  0.95751293     0.18800
H707        H  0.34463698  0.94524051  0.90418618     0.18800
F708        F  0.28738493  0.90134870  0.90105334    -0.19000
C709        C  0.45688662  0.00524388  0.75935740    -0.20400
C710        C  0.99407945  0.00523944  0.74504060    -0.08500
C711        C  0.03084771  0.50407651  0.76028096     0.30400
C712        C  0.03042522  0.50353430  0.79085918    -0.20400
C713        C  0.99197876  0.00535761  0.80696383    -0.08500
C714        C  0.45638571  0.00443127  0.78998310     0.30400
F715        F  0.41968961  0.00502810  0.80349543    -0.19000
H716        H  0.42821100  0.00607097  0.74722715     0.18800
H717        H  0.05933150  0.50309766  0.80264345     0.18800
F718        F  0.06708718  0.50506395  0.74650405    -0.19000
C719        C  0.28963210  0.76000671  0.74866456    -0.20400
C720        C  0.25222157  0.76556385  0.73284168    -0.08500
C721        C  0.21499370  0.77077065  0.74836911     0.30400
C722        C  0.21542217  0.77021186  0.77895757    -0.20400
C723        C  0.25280816  0.76446778  0.79484205    -0.08500
C724        C  0.29003835  0.75931205  0.77930788     0.30400
F725        F  0.32688057  0.75473059  0.79364719    -0.19000
H726        H  0.31871613  0.75592405  0.73729385     0.18800
H727        H  0.18631301  0.77391704  0.79023956     0.18800
F728        F  0.17805845  0.77715324  0.73408053    -0.19000
C729        C  0.43508986  0.61240310  0.64911300    -0.20400
C730        C  0.42679715  0.57437663  0.64037087    -0.08500
C731        C  0.38510987  0.57033799  0.63557574     0.30400
C732        C  0.35565365  0.60423868  0.63094632    -0.20400
C733        C  0.36609833  0.64273719  0.63450849    -0.08500
C734        C  0.40541025  0.64636674  0.64583532     0.30400
F735        F  0.41574661  0.68263918  0.65284260    -0.19000
H736        H  0.46525002  0.61614122  0.65753662     0.18800
H737        H  0.32415865  0.60037537  0.62583511     0.18800
F738        F  0.37146223  0.53497160  0.63979551    -0.19000
C739        C  0.14088983  0.92182708  0.63442051    -0.20400
C740        C  0.13178362  0.88273234  0.63176036    -0.08500
C741        C  0.09148430  0.87573365  0.63740507     0.30400
C742        C  0.06027530  0.90777095  0.64201223    -0.20400
C743        C  0.06774426  0.94751819  0.63919191    -0.08500
C744        C  0.10937223  0.95372464  0.63976302     0.30400
F745        F  0.12014411  0.98873737  0.64920346    -0.19000
H746        H  0.17256427  0.92733281  0.63376292     0.18800
H747        H  0.02988118  0.90131337  0.64717458     0.18800
F748        F  0.08193605  0.83799577  0.63768664    -0.19000
C749        C  0.39368834  0.85827924  0.61966241    -0.20400
C750        C  0.35678276  0.86352670  0.60333802    -0.08500
C751        C  0.34996046  0.89523064  0.58277076     0.30400
C752        C  0.37855271  0.92208845  0.58006032    -0.20400
C753        C  0.41466500  0.91748653  0.59730732    -0.08500
C754        C  0.42212212  0.88479121  0.61687225     0.30400
F755        F  0.45545497  0.87992240  0.63508425    -0.19000
H756        H  0.40013728  0.83425978  0.63553840     0.18800
H757        H  0.37208599  0.94710582  0.56503305     0.18800
F758        F  0.31530777  0.90106543  0.56582851    -0.19000
C759        C  0.11969738  0.60328677  0.59005375    -0.20400
C760        C  0.08298268  0.61102411  0.60591088    -0.08500
C761        C  0.07564491  0.64638368  0.62259245     0.30400
C762        C  0.10478405  0.67257142  0.62381234    -0.20400
C763        C  0.14211774  0.66426932  0.60872029    -0.08500
C764        C  0.14897359  0.62952217  0.59132173     0.30400
F765        F  0.18448779  0.61999467  0.57630246    -0.19000
H766        H  0.12614285  0.57628639  0.57717210     0.18800
H767        H  0.09843314  0.69899359  0.63734077     0.18800
F768        F  0.04165692  0.65454248  0.63940824    -0.19000
O769        O  0.69232684  0.35185861  0.60731596    -0.77600
C770        C  0.82588086  0.33641075  0.60880554     0.83400
O771        O  0.76119935  0.23087038  0.55011489    -0.78700
O772        O  0.83744417  0.21072355  0.64181272    -0.80200
O773        O  0.72046361  0.25757912  0.68686917    -0.80000
O774        O  0.66407536  0.31688422  0.64099257    -0.78600
Zn775      Zn  0.74191201  0.31260889  0.59300213     1.55700
O776        O  0.78418565  0.27307585  0.68688506    -0.80000
Cd777      Cd  0.70237034  0.26344117  0.64349614     1.59700
Cd778      Cd  0.75685953  0.21553510  0.59379185     1.59600
O779        O  0.66850198  0.21885680  0.63155304    -0.80000
O780        O  0.75034305  0.26507657  0.61780194    -1.90500
Cd781      Cd  0.80016644  0.26556335  0.64309513     1.59900
O782        O  0.70571757  0.18627738  0.59641397    -0.80000
O783        O  0.83342465  0.30931653  0.62850002    -0.78600
C784        C  0.74874939  0.26367899  0.53664548     0.83900
C785        C  0.66464434  0.34881662  0.62633089     0.83600
O786        O  0.79217226  0.34093420  0.59419696    -0.77600
C787        C  0.75241419  0.26550461  0.70047800     0.84400
O788        O  0.73669586  0.29625533  0.55027884    -0.77700
C789        C  0.67387290  0.19118204  0.61243937     0.84500
C790        C  0.83533749  0.17838167  0.62798216     0.84800
O791        O  0.80707108  0.17563863  0.60894186    -0.80100
C792        C  0.53113960  0.48158258  0.63779398     0.30900
C793        C  0.96276935  0.03979175  0.63759351     0.30900
C794        C  0.99297549  0.47414095  0.61839451    -0.05300
C795        C  0.51301339  0.49376526  0.66776306    -0.06100
C796        C  0.53724935  0.02354675  0.62383052    -0.06000
C797        C  0.95813588  0.50353457  0.61866901    -0.05300
C798        C  0.97860325  0.02308400  0.66744703    -0.06100
C799        C  0.50274457  0.05323167  0.62411979    -0.06000
C800        C  0.92693669  0.48678903  0.60476202    -0.31400
N801        N  0.94098649  0.44814451  0.59799809     0.15100
C802        C  0.98182974  0.44124323  0.60431072    -0.31400
H803        H  0.00079159  0.41266044  0.60119987     0.17100
C804        C  0.96768672  0.03013158  0.69615063    -0.30300
N805        N  0.49468126  0.50609432  0.71388418     0.13900
C806        C  0.52251560  0.48371038  0.69653098    -0.30300
C807        C  0.51521055  0.08790853  0.61378367    -0.30600
N808        N  0.55618513  0.08085685  0.60846140     0.14400
H809        H  0.49639964  0.11678576  0.61126523     0.17000
C810        C  0.56929926  0.04128796  0.61284507    -0.30600
H811        H  0.60053790  0.02734214  0.60924184     0.17000
H812        H  0.54767315  0.46164904  0.70423179     0.17000
H813        H  0.89527931  0.50004854  0.60144914     0.17100
H814        H  0.94240971  0.05167942  0.70386036     0.17000
O815        O  0.54110009  0.08086657  0.94120541    -0.77600
C816        C  0.90975822  0.09286919  0.91723623     0.83400
O817        O  0.50439737  0.47581894  0.99410486    -0.78700
O818        O  0.91499682  0.46279571  0.90916899    -0.80200
O819        O  0.52699802  0.00776025  0.85227804    -0.80000
O820        O  0.57676441  0.04726781  0.90572112    -0.78600
Zn821      Zn  0.49164556  0.05301741  0.94712762     1.55700
O822        O  0.95897656  0.00276577  0.85331048    -0.80000
Cd823      Cd  0.54348507  0.00306067  0.89592539     1.59700
Cd824      Cd  0.50246530  0.46021201  0.95003423     1.59600
O825        O  0.57942482  0.45226385  0.90126365    -0.80000
O826        O  0.49649651  0.00565721  0.92284833    -1.90500
Cd827      Cd  0.94542739  0.00882132  0.89759282     1.59900
O828        O  0.55468024  0.42091512  0.93845125    -0.80000
O829        O  0.90787740  0.06240829  0.90125627    -0.78600
C830        C  0.49701381  0.00703644  0.00542295     0.83900
C831        C  0.57188874  0.07558886  0.92415395     0.83600
O832        O  0.93885341  0.09381716  0.93594463    -0.77600
C833        C  0.49167839  0.50575823  0.83979516     0.84400
O834        O  0.48929954  0.03943559  0.99062137    -0.77700
C835        C  0.58091047  0.42220189  0.91817355     0.84500
C836        C  0.92172654  0.43408957  0.92750187     0.84800
O837        O  0.95423393  0.42806243  0.94342225    -0.80100
C838        C  0.77964637  0.22953370  0.90327800     0.30900
C839        C  0.71267910  0.28817029  0.90261077     0.30900
C840        C  0.78347978  0.26638955  0.92212658    -0.05300
C841        C  0.76795435  0.24874896  0.87311099    -0.06100
C842        C  0.73915950  0.21730377  0.91336234    -0.06000
C843        C  0.74879925  0.29618969  0.92221119    -0.05300
C844        C  0.73325651  0.27826252  0.87258248    -0.06100
C845        C  0.70506724  0.24684464  0.91271933    -0.06000
C846        C  0.76287243  0.33200724  0.92733872    -0.31400
N847        N  0.80438963  0.32535483  0.92995846     0.15100
C848        C  0.81707281  0.28597680  0.92576698    -0.31400
H849        H  0.84869732  0.27329598  0.92174295     0.17100
C850        C  0.72400287  0.28663281  0.84344306    -0.30300
N851        N  0.75301520  0.26499093  0.82656925     0.13900
C852        C  0.78003715  0.24184270  0.84455683    -0.30300
C853        C  0.67112358  0.22857329  0.91766842    -0.30600
N854        N  0.68407072  0.18903593  0.92206089     0.14400
H855        H  0.63923555  0.24239788  0.91620453     0.17000
C856        C  0.72555714  0.18172344  0.91926464    -0.30600
H857        H  0.74402183  0.15240589  0.91987457     0.17000
H858        H  0.80528385  0.21998611  0.83730779     0.17000
H859        H  0.74415781  0.36116771  0.92636215     0.17100
H860        H  0.69722928  0.30581390  0.83487886     0.17000
O861        O  0.55375504  0.42693713  0.10736627    -0.77600
C862        C  0.92000874  0.43986043  0.11760727     0.83400
O863        O  0.98819515  0.04451870  0.05198428    -0.78700
O864        O  0.91205277  0.06733162  0.14529210    -0.80200
O865        O  0.52748026  0.00955989  0.19252524    -0.80000
O866        O  0.58598775  0.45732879  0.14192519    -0.78600
Zn867      Zn  0.00047985  0.46348793  0.09631615     1.55700
O868        O  0.96688943  0.00960397  0.19430753    -0.80000
Cd869      Cd  0.54255810  0.00928109  0.14830875     1.59700
Cd870      Cd  0.99044031  0.05793957  0.09645460     1.59600
O871        O  0.57342544  0.05605857  0.13858437    -0.80000
O872        O  0.99730595  0.01057720  0.12289518    -1.90500
Cd873      Cd  0.95002526  0.01375980  0.15023995     1.59900
O874        O  0.53817080  0.08694873  0.10091948    -0.80000
O875        O  0.91316645  0.46829401  0.13593741    -0.78600
C876        C  0.99541219  0.01086070  0.03911148     0.83900
C877        C  0.58400344  0.42776255  0.12501370     0.83600
O878        O  0.95215183  0.43484525  0.10190005    -0.77600
C879        C  0.00101613  0.01101491  0.20762424     0.84400
O880        O  0.00242543  0.47653812  0.05272314    -0.77700
C881        C  0.56846099  0.08317441  0.11889293     0.84500
C882        C  0.91164081  0.09625908  0.12736624     0.84800
O883        O  0.93869717  0.09613442  0.10761814    -0.80100
C884        C  0.71475054  0.29160430  0.13433065     0.30900
C885        C  0.78092274  0.23231071  0.13469727     0.30900
C886        C  0.75138369  0.29969935  0.11595790    -0.05300
C887        C  0.73419389  0.27999603  0.16471030    -0.06100
C888        C  0.70666573  0.25096201  0.12269750    -0.06000
C889        C  0.78575322  0.26967018  0.11656585    -0.05300
C890        C  0.76844493  0.25033500  0.16485019    -0.06100
C891        C  0.74058507  0.22100060  0.12258922    -0.06000
C892        C  0.81947427  0.28895590  0.11271998    -0.31400
N893        N  0.80668167  0.32814645  0.10751819     0.15100
C894        C  0.76530719  0.33519248  0.10992671    -0.31400
H895        H  0.74730056  0.36467158  0.11089122     0.17100
C896        C  0.77976526  0.24275952  0.19378164    -0.30300
N897        N  0.75252562  0.26575914  0.21123123     0.13900
C898        C  0.72452373  0.28845094  0.19358434    -0.30300
C899        C  0.72646627  0.18539578  0.11740434    -0.30600
N900        N  0.68483993  0.19275625  0.11523664     0.14400
H901        H  0.74482101  0.15604337  0.11728143     0.17000
C902        C  0.67242092  0.23244113  0.11896760    -0.30600
H903        H  0.64066799  0.24601458  0.12152631     0.17000
H904        H  0.69861452  0.30929232  0.20113731     0.17000
H905        H  0.85120965  0.27660748  0.11752470     0.17100
H906        H  0.80488320  0.22078923  0.20164692     0.17000
C907        C  0.96502369  0.03854675  0.41034207     0.30900
C908        C  0.53054584  0.47790318  0.40977516     0.30900
C909        C  0.95639299  0.99879292  0.42263941    -0.05300
C910        C  0.98325992  0.02693710  0.38003515    -0.06100
C911        C  0.50691519  0.04928826  0.41681253    -0.06000
C912        C  0.99513487  0.47138180  0.42884253    -0.05300
C913        C  0.50737789  0.98624604  0.37857793    -0.06100
C914        C  0.54022873  0.01865943  0.41744371    -0.06000
C915        C  0.97979664  0.43767193  0.43806713    -0.31400
N916        N  0.93841726  0.44606446  0.44025589     0.15100
C917        C  0.92699613  0.48539231  0.43438449    -0.31400
H918        H  0.89000791  0.99855125  0.42792005     0.17100
C919        C  0.52838780  0.48975415  0.35131707    -0.30300
N920        N  0.00249513  0.01403267  0.33394844     0.13900
C921        C  0.97611599  0.03832778  0.35111397    -0.30300
C922        C  0.57366934  0.03588523  0.42705518    -0.30600
N923        N  0.56230225  0.07603218  0.42963628     0.14400
H924        H  0.60431971  0.02066531  0.43146103     0.17000
C925        C  0.52128977  0.08422410  0.42379865    -0.30600
H926        H  0.50324267  0.11368363  0.42383043     0.17000
H927        H  0.95358683  0.06250420  0.34286685     0.17000
H928        H  0.99648657  0.40776996  0.44022883     0.17100
H929        H  0.55193156  0.46641046  0.34359319     0.17000
O930        O  0.70783351  0.18517754  0.44354049    -0.77600
C931        C  0.83481291  0.17376362  0.42001581     0.83400
O932        O  0.73950410  0.29671610  0.49054140    -0.78700
O933        O  0.83420467  0.30290704  0.40895532    -0.80200
O934        O  0.71955800  0.25727471  0.35094282    -0.80000
O935        O  0.67146316  0.21489739  0.40601047    -0.78600
Zn936      Zn  0.75652664  0.21429073  0.44841190     1.55700
O937        O  0.78623941  0.26273615  0.35228174    -0.80000
Cd938      Cd  0.70320445  0.26061946  0.39490607     1.59700
Cd939      Cd  0.74386066  0.30907260  0.44617480     1.59600
O940        O  0.66351732  0.31328798  0.39929096    -0.80000
O941        O  0.75137682  0.25975763  0.42182793    -1.90500
Cd942      Cd  0.80106162  0.25757865  0.39677443     1.59900
O943        O  0.69331535  0.34860229  0.43235112    -0.80000
O944        O  0.83677699  0.20224601  0.40201603    -0.78600
C945        C  0.74869413  0.26376052  0.50438205     0.83900
C946        C  0.67689733  0.18840361  0.42613722     0.83600
O947        O  0.80700852  0.17526153  0.43933767    -0.77600
C948        C  0.75312590  0.26035400  0.33788223     0.84400
O949        O  0.75806841  0.23068531  0.49098804    -0.77700
C950        C  0.66448135  0.34500898  0.41408653     0.84500
C951        C  0.82676265  0.33201933  0.42684456     0.84800
O952        O  0.79405185  0.33759124  0.44187932    -0.80100
C953        C  0.65703781  0.12401165  0.44399144    -0.20400
C954        C  0.64645219  0.16069604  0.42927197    -0.08500
C955        C  0.60661202  0.17043617  0.41727841     0.30400
C956        C  0.57893857  0.14306148  0.41845919    -0.20400
C957        C  0.58985363  0.10548644  0.43197481    -0.08500
C958        C  0.62905893  0.09664893  0.44549982     0.30400
F959        F  0.64055073  0.06184843  0.46024977    -0.19000
H960        H  0.68733160  0.11611518  0.45389695     0.18800
H961        H  0.54934968  0.15104093  0.40766940     0.18800
F962        F  0.59425231  0.20640224  0.40421125    -0.19000
C963        C  0.55843298  0.40356124  0.40423488    -0.20400
C964        C  0.56618581  0.44323829  0.40723911    -0.08500
C965        C  0.60746564  0.44959293  0.40407191     0.30400
C966        C  0.63960881  0.41769061  0.40735963    -0.20400
C967        C  0.63095338  0.37848771  0.41001354    -0.08500
C968        C  0.59017967  0.37143346  0.40667236     0.30400
F969        F  0.58090729  0.33359611  0.40613400    -0.19000
H970        H  0.52816928  0.39701124  0.39874529     0.18800
H971        H  0.67122468  0.42334035  0.40650889     0.18800
F972        F  0.61674236  0.48528372  0.39482818    -0.19000
C973        C  0.92386734  0.09464238  0.43918086    -0.20400
C974        C  0.92847681  0.07195849  0.41315780    -0.08500
C975        C  0.89697338  0.07925356  0.39172359     0.30400
C976        C  0.86679923  0.11299357  0.39378784    -0.20400
C977        C  0.86559320  0.13787759  0.41835105    -0.08500
C978        C  0.89311940  0.12754427  0.44163221     0.26800
F979        F  0.89099618  0.14992509  0.46637202    -0.19000
H980        H  0.94448586  0.08735693  0.45770729     0.18800
H981        H  0.84375007  0.11922359  0.37655437     0.18800
F982        F  0.89382411  0.05300994  0.36972623    -0.19000
C983        C  0.92048832  0.38438862  0.41864818    -0.20400
C984        C  0.91137007  0.41654875  0.43810545    -0.08500
C985        C  0.87460323  0.42073457  0.45374474     0.30400
C986        C  0.84752813  0.39289943  0.45013790    -0.20400
C987        C  0.85643849  0.36064042  0.43056213    -0.08500
C988        C  0.89335113  0.35671602  0.41477118     0.30400
F989        F  0.90314670  0.32662728  0.39529917    -0.19000
H990        H  0.94827451  0.38130662  0.40580661     0.18800
H991        H  0.81937803  0.39687543  0.46260861     0.18800
F992        F  0.86508432  0.45161117  0.47258406    -0.19000
C993        C  0.71597100  0.26797587  0.28930120    -0.20400
C994        C  0.75338522  0.26153005  0.30520020    -0.08500
C995        C  0.79052055  0.25635158  0.28946193     0.30400
C996        C  0.78993158  0.25786830  0.25877156    -0.20400
C997        C  0.75252121  0.26468797  0.24292942    -0.08500
C998        C  0.71540633  0.26956498  0.25863726     0.30400
F999        F  0.67842892  0.27450734  0.24446273    -0.19000
H1000       H  0.68685152  0.27185452  0.30063083     0.18800
H1001       H  0.81893487  0.25401980  0.24731985     0.18800
F1002       F  0.82752168  0.24924180  0.30359114    -0.19000
C1003       C  0.95699647  0.51784796  0.25378196    -0.20400
C1004       C  0.00201677  0.01166157  0.24033539    -0.08500
C1005       C  0.03902437  0.01251375  0.25632790     0.30400
C1006       C  0.03899453  0.01312174  0.28702660    -0.20400
C1007       C  0.00221163  0.01371678  0.30243107    -0.08500
C1008       C  0.95640998  0.51720535  0.28445048     0.30400
F1009       F  0.91990412  0.52787130  0.29801549    -0.19000
H1010       H  0.92853635  0.52792044  0.24193486     0.18800
H1011       H  0.06769642  0.01364730  0.29888765     0.18800
F1012       F  0.07530901  0.01288138  0.24246755    -0.19000
C1013       C  0.62097394  0.17121909  0.09772659    -0.20400
C1014       C  0.65759140  0.16345646  0.11419645    -0.08500
C1015       C  0.66540023  0.12858770  0.13138000     0.30400
C1016       C  0.63634625  0.10254524  0.13258571    -0.20400
C1017       C  0.59912965  0.11071364  0.11666702    -0.08500
C1018       C  0.59192338  0.14513120  0.09879660     0.30400
F1019       F  0.55649818  0.15429340  0.08294521    -0.19000
H1020       H  0.61468167  0.19798146  0.08436102     0.18800
H1021       H  0.64286067  0.07617539  0.14634486     0.18800
F1022       F  0.69997910  0.12070719  0.14825294    -0.19000
C1023       C  0.65005248  0.39381410  0.14665383    -0.20400
C1024       C  0.61750073  0.39340887  0.12647864    -0.08500
C1025       C  0.61779887  0.36019774  0.10795978     0.30400
C1026       C  0.64875518  0.32737528  0.11089737    -0.20400
C1027       C  0.67951335  0.32625034  0.13278497    -0.08500
C1028       C  0.68117025  0.36118057  0.14932282     0.30400
F1029       F  0.71397934  0.36493070  0.16692407    -0.19000
H1030       H  0.65189873  0.41973377  0.16023463     0.18800
H1031       H  0.64915345  0.30350319  0.09517859     0.18800
F1032       F  0.58883667  0.35956960  0.08655111    -0.19000
C1033       C  0.84813085  0.13177335  0.15073096    -0.20400
C1034       C  0.87887769  0.13101041  0.12951134    -0.08500
C1035       C  0.87724264  0.16329203  0.10990522     0.30400
C1036       C  0.84572438  0.19540843  0.11163253    -0.20400
C1037       C  0.81601597  0.19750607  0.13375790    -0.08500
C1038       C  0.81672069  0.16433092  0.15262439     0.30400
F1039       F  0.78602757  0.16236415  0.17197568    -0.19000
H1040       H  0.84788638  0.10682534  0.16561346     0.18800
H1041       H  0.84412867  0.21766174  0.09454712     0.18800
F1042       F  0.90546412  0.16373715  0.08845648    -0.19000
C1043       C  0.89802324  0.37919425  0.09530036    -0.20400
C1044       C  0.88974881  0.41207077  0.11423782    -0.08500
C1045       C  0.85238180  0.41797125  0.12961345     0.30400
C1046       C  0.82448566  0.39106455  0.12640260    -0.20400
C1047       C  0.83333228  0.35785981  0.10805878    -0.08500
C1048       C  0.87007746  0.35222267  0.09226589     0.30400
F1049       F  0.87890108  0.32050522  0.07405784    -0.19000
H1050       H  0.92634184  0.37402194  0.08303225     0.18800
H1051       H  0.79657199  0.39536882  0.13913459     0.18800
F1052       F  0.84283036  0.44926828  0.14810081    -0.19000
C1053       C  0.59577491  0.13750959  0.94299527    -0.20400
C1054       C  0.60247362  0.10335110  0.92520853    -0.08500
C1055       C  0.63791761  0.09689208  0.90766698     0.30400
C1056       C  0.66518044  0.12466153  0.90744786    -0.20400
C1057       C  0.65763732  0.15928410  0.92444588    -0.08500
C1058       C  0.62309097  0.16538044  0.94255618     0.30400
F1059       F  0.61591813  0.19824511  0.95980806    -0.19000
H1060       H  0.56899989  0.14310271  0.95684393     0.18800
H1061       H  0.69157021  0.11981024  0.89320204     0.18800
F1062       F  0.64605782  0.06426283  0.89022734    -0.19000
C1063       C  0.84898846  0.12952726  0.89004795    -0.20400
C1064       C  0.87736716  0.12797643  0.91351868    -0.08500
C1065       C  0.87366949  0.15972939  0.93348750     0.30400
C1066       C  0.84269427  0.19227003  0.92977824    -0.20400
C1067       C  0.81523862  0.19501867  0.90558848    -0.08500
C1068       C  0.81789302  0.16221419  0.88635849     0.30400
F1069       F  0.78922633  0.16056638  0.86491642    -0.19000
H1070       H  0.85033237  0.10500186  0.87467315     0.18800
H1071       H  0.83949096  0.21439889  0.94695834     0.18800
F1072       F  0.89891816  0.15887953  0.95731923    -0.19000
C1073       C  0.62099078  0.35725991  0.93468329    -0.20400
C1074       C  0.61381521  0.38786314  0.91370778    -0.08500
C1075       C  0.63898129  0.38561175  0.88878816     0.30400
C1076       C  0.67005933  0.35321521  0.88500438    -0.20400
C1077       C  0.67612306  0.32144630  0.90521616    -0.08500
C1078       C  0.65228440  0.32500818  0.93092893     0.30400
F1079       F  0.66035516  0.29835033  0.95325523    -0.19000
H1080       H  0.60310579  0.35878086  0.95453585     0.18800
H1081       H  0.69066956  0.35458961  0.86696883     0.18800
F1082       F  0.63429705  0.41498207  0.86816116    -0.19000
C1083       C  0.87021629  0.34450430  0.94573419    -0.20400
C1084       C  0.83181655  0.35459307  0.93162700    -0.08500
C1085       C  0.82257765  0.39180160  0.91736638     0.30400
C1086       C  0.85172487  0.41778135  0.91682359    -0.20400
C1087       C  0.89067066  0.40708754  0.93009683    -0.08500
C1088       C  0.89957685  0.37023147  0.94487480     0.30400
F1089       F  0.93701636  0.35824488  0.95756261    -0.19000
H1090       H  0.87783068  0.31602502  0.95691799     0.18800
H1091       H  0.84401223  0.44602207  0.90533401     0.18800
F1092       F  0.78660636  0.40231168  0.90245512    -0.19000
C1093       C  0.95686978  0.50554254  0.75912677    -0.20400
C1094       C  0.49398473  0.50517347  0.74536299    -0.08500
C1095       C  0.53092257  0.00336924  0.76051309     0.30400
C1096       C  0.53047922  0.00292686  0.79108622    -0.20400
C1097       C  0.49182853  0.50517033  0.80726649    -0.08500
C1098       C  0.95639017  0.50463719  0.78975841     0.30400
F1099       F  0.91972661  0.50501064  0.80327219    -0.19000
H1100       H  0.92821104  0.50623707  0.74699677     0.18800
H1101       H  0.55940184  0.00236220  0.80287258     0.18800
F1102       F  0.56720946  0.00410584  0.74674205    -0.19000
C1103       C  0.78993011  0.25990819  0.74873415    -0.20400
C1104       C  0.75250247  0.26567596  0.73293390    -0.08500
C1105       C  0.71530055  0.27117847  0.74848772     0.30400
C1106       C  0.71576424  0.27072063  0.77907813    -0.20400
C1107       C  0.75316324  0.26478780  0.79494906    -0.08500
C1108       C  0.79037575  0.25931573  0.77938214     0.30400
F1109       F  0.82725094  0.25451062  0.79368349    -0.19000
H1110       H  0.81899622  0.25558581  0.73734091     0.18800
H1111       H  0.68666014  0.27464353  0.79036805     0.18800
F1112       F  0.67835746  0.27776278  0.73421967    -0.19000
C1113       C  0.93527997  0.11242345  0.64882378    -0.20400
C1114       C  0.92691403  0.07442434  0.64006947    -0.08500
C1115       C  0.88520978  0.07041465  0.63535682     0.30400
C1116       C  0.85575901  0.10433309  0.63083686    -0.20400
C1117       C  0.86625899  0.14280977  0.63438935    -0.08500
C1118       C  0.90563164  0.14641266  0.64560062     0.30400
F1119       F  0.91605073  0.18267665  0.65253918    -0.19000
H1120       H  0.96546246  0.11611962  0.65722502     0.18800
H1121       H  0.82423470  0.10049799  0.62579845     0.18800
F1122       F  0.87156552  0.03503825  0.63952799    -0.19000
C1123       C  0.64095004  0.42186101  0.63442980    -0.20400
C1124       C  0.63184487  0.38275512  0.63183979    -0.08500
C1125       C  0.59157858  0.37576691  0.63763612     0.30400
C1126       C  0.56039803  0.40780807  0.64235306    -0.20400
C1127       C  0.56783273  0.44756412  0.63949324    -0.08500
C1128       C  0.60946675  0.45376525  0.63987046     0.30400
F1129       F  0.62031719  0.48877497  0.64924466    -0.19000
H1130       H  0.67261537  0.42737285  0.63365202     0.18800
H1131       H  0.53003058  0.40134890  0.64760043     0.18800
F1132       F  0.58202544  0.33803127  0.63795988    -0.19000
C1133       C  0.89379003  0.35825642  0.61967454    -0.20400
C1134       C  0.85703127  0.36333213  0.60317412    -0.08500
C1135       C  0.85043636  0.39479151  0.58239899     0.30400
C1136       C  0.87905264  0.42163335  0.57968513    -0.20400
C1137       C  0.91498345  0.41723170  0.59712374    -0.08500
C1138       C  0.92226026  0.38473419  0.61686738     0.30400
F1139       F  0.95543548  0.38005488  0.63522676    -0.19000
H1140       H  0.90008223  0.33441547  0.63570357     0.18800
H1141       H  0.87274092  0.44648613  0.56450320     0.18800
F1142       F  0.81598607  0.40039818  0.56524366    -0.19000
C1143       C  0.61994709  0.10297100  0.59055530    -0.20400
C1144       C  0.58313362  0.11085599  0.60629253    -0.08500
C1145       C  0.57574680  0.14633042  0.62284494     0.30400
C1146       C  0.60490352  0.17249832  0.62403743    -0.20400
C1147       C  0.64231279  0.16406273  0.60905842    -0.08500
C1148       C  0.64925200  0.12917659  0.59181233     0.30400
F1149       F  0.68486567  0.11949283  0.57693242    -0.19000
H1150       H  0.62644467  0.07588912  0.57777072     0.18800
H1151       H  0.59849445  0.19902697  0.63744972     0.18800
F1152       F  0.54167916  0.15464995  0.63956141    -0.19000
O1153       O  0.69034018  0.85109474  0.60655116    -0.77600
C1154       C  0.82430413  0.83556100  0.60829504     0.83400
O1155       O  0.75841410  0.72945104  0.55011201    -0.78700
O1156       O  0.83530963  0.71046864  0.64097175    -0.80200
O1157       O  0.71892436  0.75730012  0.68672675    -0.80000
O1158       O  0.66186477  0.81675872  0.64056165    -0.78600
Zn1159     Zn  0.74006613  0.81195326  0.59247388     1.55700
O1160       O  0.78283214  0.77225950  0.68617554    -0.80000
Cd1161     Cd  0.70016077  0.76328329  0.64339945     1.59700
Cd1162     Cd  0.75456362  0.71483890  0.59383295     1.59600
O1163       O  0.66605774  0.71866465  0.63175837    -0.80000
O1164       O  0.74807054  0.76465647  0.61748135    -1.90500
Cd1165     Cd  0.79807976  0.76507401  0.64243243     1.59900
O1166       O  0.70358674  0.68585738  0.59685738    -0.80000
O1167       O  0.83163773  0.80843783  0.62794721    -0.78600
C1168       C  0.74617175  0.76211040  0.53644554     0.83900
C1169       C  0.66257414  0.84840307  0.62557275     0.83600
O1170       O  0.79055366  0.84034795  0.59369150    -0.77600
C1171       C  0.75134133  0.76465977  0.70005035     0.84400
O1172       O  0.73470073  0.79500654  0.54985140    -0.77700
C1173       C  0.67167949  0.69082934  0.61277911     0.84500
C1174       C  0.83329859  0.67797552  0.62736017     0.84800
O1175       O  0.80478644  0.67478614  0.60863870    -0.80100
C1176       C  0.53072566  0.98263174  0.63671976     0.30900
C1177       C  0.96288652  0.54138789  0.63690190     0.30900
C1178       C  0.99294783  0.97206100  0.61997817    -0.05300
C1179       C  0.51219160  0.99399161  0.66669599    -0.06100
C1180       C  0.53684397  0.52223630  0.62402003    -0.06000
C1181       C  0.95795661  0.00130510  0.62010833    -0.05300
C1182       C  0.97801554  0.52377264  0.66666055    -0.06100
C1183       C  0.50205731  0.55155489  0.62411409    -0.06000
C1184       C  0.92704729  0.98436222  0.60602867    -0.31400
N1185       N  0.94123908  0.94567248  0.59943846     0.15100
C1186       C  0.98204479  0.93896611  0.60597048    -0.31400
H1187       H  0.00147478  0.91074601  0.60243218     0.17100
C1188       C  0.96709978  0.53046542  0.69543361    -0.30300
N1189       N  0.49411867  0.00567901  0.71290403     0.13900
C1190       C  0.52170075  0.98339119  0.69535174    -0.30300
C1191       C  0.51392799  0.58631640  0.61352424    -0.30600
N1192       N  0.55493054  0.57976666  0.60821394     0.14400
H1193       H  0.49454714  0.61489028  0.61095998     0.17000
C1194       C  0.56852744  0.54029058  0.61285910    -0.30600
H1195       H  0.59986344  0.52661736  0.60947312     0.17000
H1196       H  0.54692973  0.96127138  0.70287960     0.17000
H1197       H  0.89562664  0.99770547  0.60203633     0.17100
H1198       H  0.94210562  0.55218459  0.70332291     0.17000
O1199       O  0.53941798  0.58434682  0.94158419    -0.77600
C1200       C  0.91233508  0.59099473  0.91573313     0.83400
O1201       O  0.50576166  0.97313400  0.99293193    -0.78700
O1202       O  0.91324505  0.96433560  0.90994568    -0.80200
O1203       O  0.52490963  0.50949304  0.85340708    -0.80000
O1204       O  0.57430623  0.54979133  0.90618851    -0.78600
Zn1205     Zn  0.48993667  0.55594468  0.94822101     1.55700
O1206       O  0.96117655  0.49998407  0.85250612    -0.80000
Cd1207     Cd  0.54131607  0.50531795  0.89699215     1.59700
Cd1208     Cd  0.50430214  0.95745778  0.94878363     1.59600
O1209       O  0.58130652  0.94990079  0.90006829    -0.80000
O1210       O  0.49442802  0.50829011  0.92399499    -1.90500
Cd1211     Cd  0.94751324  0.50668576  0.89659421     1.59900
O1212       O  0.55675901  0.91838432  0.93727474    -0.80000
O1213       O  0.91031214  0.56064009  0.89967780    -0.78600
C1214       C  0.49605150  0.50964552  0.00673291     0.83900
C1215       C  0.56994175  0.57853642  0.92425351     0.83600
O1216       O  0.94115987  0.59146072  0.93468637    -0.77600
C1217       C  0.49372977  0.00371043  0.83879325     0.84400
O1218       O  0.48832609  0.54217589  0.99201343    -0.77700
C1219       C  0.58294418  0.91982771  0.91697742     0.84500
C1220       C  0.92007981  0.93592689  0.92853803     0.84800
O1221       O  0.95237973  0.93060823  0.94467192    -0.80100
C1222       C  0.78285590  0.72843592  0.90249260     0.30900
C1223       C  0.71585674  0.78697376  0.90168065     0.30900
C1224       C  0.78597618  0.76472152  0.92228924    -0.05300
C1225       C  0.77235763  0.74877678  0.87252729    -0.06100
C1226       C  0.74182163  0.71578208  0.91132736    -0.06000
C1227       C  0.75103339  0.79430526  0.92233295    -0.05300
C1228       C  0.73761750  0.77828293  0.87197218    -0.06100
C1229       C  0.70786732  0.74542881  0.91058841    -0.06000
C1230       C  0.76442337  0.83019178  0.92823272    -0.31400
N1231       N  0.80584520  0.82407190  0.93109050     0.15100
C1232       C  0.81918600  0.78486663  0.92657657    -0.31400
H1233       H  0.85103267  0.77286706  0.92255832     0.17100
C1234       C  0.72782451  0.78596612  0.84286177    -0.30300
N1235       N  0.75669323  0.76423833  0.82598536     0.13900
C1236       C  0.78412714  0.74150993  0.84391513    -0.30300
C1237       C  0.67373488  0.72768983  0.91581140    -0.30600
N1238       N  0.68623659  0.68818458  0.92041018     0.14400
H1239       H  0.64196237  0.74192863  0.91476897     0.17000
C1240       C  0.72774675  0.68036658  0.91744559    -0.30600
H1241       H  0.74593511  0.65092738  0.91849407     0.17000
H1242       H  0.80902964  0.71930928  0.83655383     0.17000
H1243       H  0.74546313  0.85920288  0.92722810     0.17100
H1244       H  0.70048884  0.80430145  0.83432540     0.17000
O1245       O  0.55207469  0.92668287  0.10723376    -0.77600
C1246       C  0.92143595  0.94193573  0.12068583     0.83400
O1247       O  0.98802016  0.54275708  0.05044985    -0.78700
O1248       O  0.90761443  0.56671724  0.14100640    -0.80200
O1249       O  0.53449812  0.51338898  0.19324676    -0.80000
O1250       O  0.58281572  0.95788320  0.14208042    -0.78600
Zn1251     Zn  0.00165278  0.96449755  0.09740376     1.55700
O1252       O  0.96010044  0.50844206  0.19171016    -0.80000
Cd1253     Cd  0.54715904  0.50961620  0.14863095     1.59700
Cd1254     Cd  0.98859062  0.55735759  0.09476217     1.59600
O1255       O  0.57781228  0.55568228  0.13752095    -0.80000
O1256       O  0.99437864  0.51009128  0.12137887    -1.90500
Cd1257     Cd  0.94552923  0.51323379  0.14719746     1.59900
O1258       O  0.53964866  0.58823404  0.10187458    -0.80000
O1259       O  0.91634693  0.96947517  0.13982335    -0.78600
C1260       C  0.99575415  0.50889451  0.03788439     0.83900
C1261       C  0.58171267  0.92808234  0.12528911     0.83600
O1262       O  0.95250078  0.93716947  0.10389073    -0.77600
C1263       C  0.99387635  0.50792768  0.20591283     0.84400
O1264       O  0.00229489  0.97829427  0.05372742    -0.77700
C1265       C  0.57115231  0.58380423  0.11870475     0.84500
C1266       C  0.90807775  0.59599771  0.12347748     0.84800
O1267       O  0.93623870  0.59624363  0.10455045    -0.80100
C1268       C  0.71388833  0.79342367  0.13493858     0.30900
C1269       C  0.78016768  0.73424524  0.13412505     0.30900
C1270       C  0.75128452  0.80309585  0.11817497    -0.05300
C1271       C  0.73202309  0.77937125  0.16517269    -0.06100
C1272       C  0.70636739  0.75394909  0.12104399    -0.06000
C1273       C  0.78558137  0.77298559  0.11792541    -0.05300
C1274       C  0.76647312  0.74987009  0.16476413    -0.06100
C1275       C  0.74038344  0.72399229  0.12032591    -0.06000
C1276       C  0.81941841  0.79223822  0.11466989    -0.31400
N1277       N  0.80661566  0.83179564  0.11108527     0.15100
C1278       C  0.76532649  0.83894447  0.11386945    -0.31400
H1279       H  0.74756698  0.86839779  0.11595839     0.17100
C1280       C  0.77757024  0.74096363  0.19357736    -0.30300
N1281       N  0.74984929  0.76278364  0.21132359     0.13900
C1282       C  0.72183384  0.78615179  0.19414593    -0.30300
C1283       C  0.72600782  0.68838091  0.11570835    -0.30600
N1284       N  0.68443614  0.69575340  0.11433974     0.14400
H1285       H  0.74408630  0.65890169  0.11591565     0.17000
C1286       C  0.67208206  0.73524370  0.11840420    -0.30600
H1287       H  0.64048501  0.74852120  0.12218990     0.17000
H1288       H  0.69572524  0.80638179  0.20217593     0.17000
H1289       H  0.85127757  0.77930697  0.11841166     0.17100
H1290       H  0.80304516  0.71919706  0.20115244     0.17000
C1291       C  0.96636690  0.53865409  0.40922312     0.30900
C1292       C  0.53033784  0.97714820  0.40793558     0.30900
C1293       C  0.96162669  0.50244049  0.42835318    -0.05300
C1294       C  0.97715823  0.52008237  0.37898653    -0.06100
C1295       C  0.50391395  0.54587038  0.42826282    -0.06000
C1296       C  0.98926865  0.96763275  0.42310719    -0.05300
C1297       C  0.51692835  0.49680861  0.37997246    -0.06100
C1298       C  0.53715564  0.51454310  0.42872924    -0.06000
C1299       C  0.97352222  0.93437868  0.43281826    -0.31400
N1300       N  0.93225488  0.94392679  0.43564303     0.15100
C1301       C  0.92138768  0.98335924  0.42985610    -0.31400
H1302       H  0.89552327  0.49923549  0.43034461     0.17100
C1303       C  0.51690668  0.97685677  0.34986320    -0.30300
N1304       N  0.99270962  0.50420260  0.33247587     0.13900
C1305       C  0.96849246  0.53017274  0.34998761    -0.30300
C1306       C  0.57144441  0.53181360  0.43656005    -0.30600
N1307       N  0.56063241  0.57196908  0.43865657     0.14400
H1308       H  0.60287708  0.51706909  0.43796106     0.17000
C1309       C  0.51967196  0.58058882  0.43356041    -0.30600
H1310       H  0.50308376  0.61044188  0.43057255     0.17000
H1311       H  0.94804675  0.55622169  0.34219942     0.17000
H1312       H  0.98960371  0.90441502  0.43594519     0.17100
H1313       H  0.54210135  0.95495700  0.34253903     0.17000
O1314       O  0.70552397  0.68147150  0.44399972    -0.77600
C1315       C  0.83311117  0.67105583  0.42095667     0.83400
O1316       O  0.73619249  0.79422375  0.49011264    -0.78700
O1317       O  0.82897401  0.80020696  0.40759680    -0.80200
O1318       O  0.71558964  0.75267660  0.35077540    -0.80000
O1319       O  0.66867628  0.70983689  0.40620094    -0.78600
Zn1320     Zn  0.75384205  0.71085998  0.44868459     1.55700
O1321       O  0.78233775  0.75768562  0.35224966    -0.80000
Cd1322     Cd  0.69926134  0.75621197  0.39482114     1.59700
Cd1323     Cd  0.73984971  0.80546747  0.44567387     1.59600
O1324       O  0.65863560  0.80860858  0.39903655    -0.80000
O1325       O  0.74763867  0.75587510  0.42169559    -1.90500
Cd1326     Cd  0.79715920  0.75375461  0.39664810     1.59900
O1327       O  0.68884105  0.84393443  0.43186788    -0.80000
O1328       O  0.83443303  0.69952944  0.40285247    -0.78600
C1329       C  0.74569680  0.76156258  0.50421407     0.83900
C1330       C  0.67464164  0.68375697  0.42659718     0.83600
O1331       O  0.80503484  0.67194617  0.44005159    -0.77600
C1332       C  0.74928587  0.75545233  0.33777163     0.84400
O1333       O  0.75506310  0.72825781  0.49110046    -0.77700
C1334       C  0.65985827  0.84038542  0.41373509     0.84500
C1335       C  0.82140397  0.82959001  0.42519017     0.84800
O1336       O  0.78919499  0.83493556  0.44073412    -0.80100
C1337       C  0.65417114  0.62226542  0.44910474    -0.20400
C1338       C  0.64484339  0.65550651  0.43030429    -0.08500
C1339       C  0.60674987  0.66145149  0.41529390     0.30400
C1340       C  0.57925296  0.63425352  0.41856236    -0.20400
C1341       C  0.58863750  0.60078445  0.43707260    -0.08500
C1342       C  0.62636049  0.59508011  0.45247645     0.30400
F1343       F  0.63618367  0.56349266  0.47090768    -0.19000
H1344       H  0.68317490  0.61707559  0.46108116     0.18800
H1345       H  0.55090206  0.63901757  0.40585797     0.18800
F1346       F  0.59578651  0.69350408  0.39740959    -0.19000
C1347       C  0.55559215  0.90268062  0.40250122    -0.20400
C1348       C  0.56526503  0.94175142  0.40557550    -0.08500
C1349       C  0.60719436  0.94617906  0.40337346     0.30400
C1350       C  0.63778116  0.91312477  0.40703247    -0.20400
C1351       C  0.62725157  0.87460647  0.40930864    -0.08500
C1352       C  0.58600508  0.86932360  0.40535882     0.30400
F1353       F  0.57497318  0.83216623  0.40501771    -0.19000
H1354       H  0.52434457  0.89778876  0.39795438     0.18800
H1355       H  0.66986779  0.91734504  0.40648794     0.18800
F1356       F  0.61877873  0.98024620  0.39293525    -0.19000
C1357       C  0.92817718  0.59728132  0.43720175    -0.20400
C1358       C  0.93006292  0.57228434  0.41235351    -0.08500
C1359       C  0.89535274  0.57628550  0.39342705     0.30400
C1360       C  0.86382262  0.60867184  0.39634955    -0.20400
C1361       C  0.86485538  0.63586928  0.41931108    -0.08500
C1362       C  0.89637331  0.62923238  0.44038416     0.26800
F1363       F  0.89682536  0.65408949  0.46365978    -0.19000
H1364       H  0.95158562  0.59234006  0.45423621     0.18800
H1365       H  0.83813894  0.61217905  0.38096122     0.18800
F1366       F  0.89019452  0.54782335  0.37344486    -0.19000
C1367       C  0.90663660  0.88999128  0.40907703    -0.20400
C1368       C  0.90471173  0.91513128  0.43354661    -0.08500
C1369       C  0.87543142  0.91241023  0.45510736     0.30400
C1370       C  0.84858754  0.88420700  0.45236060    -0.20400
C1371       C  0.85049405  0.85868959  0.42788596    -0.08500
C1372       C  0.87966803  0.86207045  0.40607918     0.30400
F1373       F  0.88147262  0.83931776  0.38153636    -0.19000
H1374       H  0.92881051  0.89259362  0.39205541     0.18800
H1375       H  0.82639082  0.88225698  0.46947262     0.18800
F1376       F  0.87334793  0.93658189  0.47887916    -0.19000
C1377       C  0.71287014  0.75857430  0.28883642    -0.20400
C1378       C  0.74988482  0.75656145  0.30507322    -0.08500
C1379       C  0.78699639  0.75612395  0.28963525     0.30400
C1380       C  0.78672357  0.75787872  0.25896521    -0.20400
C1381       C  0.74966017  0.76053339  0.24290517    -0.08500
C1382       C  0.71266052  0.76061437  0.25818284     0.30400
F1383       F  0.67637001  0.76150125  0.24346579    -0.19000
H1384       H  0.68382108  0.75870794  0.29986885     0.18800
H1385       H  0.81556822  0.75777942  0.24767101     0.18800
F1386       F  0.82369741  0.75399848  0.30402453    -0.19000
C1387       C  0.96529405  0.01180751  0.25603297    -0.20400
C1388       C  0.99373338  0.50605002  0.23852174    -0.08500
C1389       C  0.02994393  0.49261421  0.25478816     0.30400
C1390       C  0.02938294  0.49204146  0.28546181    -0.20400
C1391       C  0.99282097  0.50467619  0.30076254    -0.08500
C1392       C  0.96531064  0.01297441  0.28667190     0.30400
F1393       F  0.92945310  0.01209607  0.30098626    -0.19000
H1394       H  0.93631909  0.01100465  0.24459717     0.18800
H1395       H  0.05788577  0.48212650  0.29724936     0.18800
F1396       F  0.06585680  0.47933249  0.24112388    -0.19000
C1397       C  0.62205485  0.67223214  0.09640490    -0.20400
C1398       C  0.65748280  0.66640361  0.11415291    -0.08500
C1399       C  0.66484738  0.63322561  0.13295553     0.30400
C1400       C  0.63679297  0.60627664  0.13403403    -0.20400
C1401       C  0.60093640  0.61209442  0.11647048    -0.08500
C1402       C  0.59390986  0.64529138  0.09737285     0.30400
F1403       F  0.55971372  0.65226698  0.07999928    -0.19000
H1404       H  0.61617878  0.69795153  0.08196292     0.18800
H1405       H  0.64293995  0.58116728  0.14901689     0.18800
F1406       F  0.69803637  0.62797288  0.15132624    -0.19000
C1407       C  0.64687214  0.89422434  0.14844039    -0.20400
C1408       C  0.61547377  0.89410260  0.12726660    -0.08500
C1409       C  0.61706345  0.86145587  0.10813174     0.30400
C1410       C  0.64847488  0.82917843  0.11099216    -0.20400
C1411       C  0.67829314  0.82771150  0.13357318    -0.08500
C1412       C  0.67833665  0.86183851  0.15124962     0.30400
F1413       F  0.70983231  0.86501691  0.17020546    -0.19000
H1414       H  0.64746485  0.91966935  0.16273170     0.18800
H1415       H  0.64988899  0.80597631  0.09465735     0.18800
F1416       F  0.58892878  0.86085947  0.08615133    -0.19000
C1417       C  0.84497726  0.63170858  0.14708411    -0.20400
C1418       C  0.87543879  0.63098892  0.12568281    -0.08500
C1419       C  0.87427893  0.66400129  0.10675175     0.30400
C1420       C  0.84413700  0.69726733  0.10989945    -0.20400
C1421       C  0.81495143  0.69917026  0.13239237    -0.08500
C1422       C  0.81473838  0.66499407  0.15014385     0.30400
F1423       F  0.78408127  0.66271358  0.16946491    -0.19000
H1424       H  0.84413936  0.60623104  0.16136348     0.18800
H1425       H  0.84301118  0.72068962  0.09369536     0.18800
F1426       F  0.90165936  0.66409403  0.08471623    -0.19000
C1427       C  0.89466435  0.88574043  0.09548601    -0.20400
C1428       C  0.89040103  0.91486954  0.11762225    -0.08500
C1429       C  0.85637123  0.91761647  0.13645958     0.30400
C1430       C  0.82802908  0.89104299  0.13348281    -0.20400
C1431       C  0.83327006  0.86138226  0.11197528    -0.08500
C1432       C  0.86636293  0.85910137  0.09273865     0.30400
F1433       F  0.87115425  0.83102366  0.07136954    -0.19000
H1434       H  0.92014008  0.88323180  0.08041674     0.18800
H1435       H  0.80269006  0.89265441  0.14862590     0.18800
F1436       F  0.85076699  0.94522891  0.15813861    -0.19000
C1437       C  0.59653405  0.63948559  0.94282396    -0.20400
C1438       C  0.60124860  0.60569817  0.92462809    -0.08500
C1439       C  0.63590040  0.59856311  0.90628046     0.30400
C1440       C  0.66453381  0.62501250  0.90595450    -0.20400
C1441       C  0.65905784  0.65918023  0.92344665    -0.08500
C1442       C  0.62514285  0.66616776  0.94215648     0.30400
F1443       F  0.61980073  0.69881696  0.95971497    -0.19000
H1444       H  0.57040749  0.64563750  0.95722961     0.18800
H1445       H  0.69028082  0.61965321  0.89115526     0.18800
F1446       F  0.64195334  0.56656430  0.88809490    -0.19000
C1447       C  0.85178277  0.62831565  0.88865458    -0.20400
C1448       C  0.88040383  0.62648443  0.91198015    -0.08500
C1449       C  0.87729799  0.65829392  0.93189915     0.30400
C1450       C  0.84637381  0.69094342  0.92848145    -0.20400
C1451       C  0.81838944  0.69379560  0.90460743    -0.08500
C1452       C  0.82080801  0.66117647  0.88520088     0.30400
F1453       F  0.79200260  0.65988561  0.86380224    -0.19000
H1454       H  0.85279821  0.60385574  0.87325191     0.18800
H1455       H  0.84360450  0.71295377  0.94571905     0.18800
F1456       F  0.90307100  0.65739819  0.95544885    -0.19000
C1457       C  0.62331176  0.85502405  0.93339846    -0.20400
C1458       C  0.61609095  0.88573904  0.91251966    -0.08500
C1459       C  0.64159318  0.88397502  0.88778434     0.30400
C1460       C  0.67298378  0.85187817  0.88403718    -0.20400
C1461       C  0.67915791  0.82005022  0.90418487    -0.08500
C1462       C  0.65501784  0.82315947  0.92974007     0.30400
F1463       F  0.66321553  0.79642681  0.95201361    -0.19000
H1464       H  0.60518824  0.85620148  0.95312366     0.18800
H1465       H  0.69374384  0.85359997  0.86614588     0.18800
F1466       F  0.63701261  0.91359000  0.86734669    -0.19000
C1467       C  0.87000941  0.84569117  0.94789775    -0.20400
C1468       C  0.83240322  0.85405525  0.93259899    -0.08500
C1469       C  0.82303795  0.89032993  0.91711242     0.30400
C1470       C  0.85137104  0.91714623  0.91656526    -0.20400
C1471       C  0.88959667  0.90825213  0.93114779    -0.08500
C1472       C  0.89849512  0.87235752  0.94720997     0.30400
F1473       F  0.93512747  0.86221187  0.96144211    -0.19000
H1474       H  0.87762947  0.81788733  0.95994235     0.18800
H1475       H  0.84365196  0.94455451  0.90406030     0.18800
F1476       F  0.78780144  0.89900059  0.90104074    -0.19000
C1477       C  0.95647496  0.00715163  0.75969804    -0.20400
C1478       C  0.49405800  0.00453713  0.74436991    -0.08500
C1479       C  0.53061042  0.50312785  0.76189486     0.30400
C1480       C  0.52945741  0.50319202  0.79245266    -0.20400
C1481       C  0.49332787  0.00346066  0.80626900    -0.08500
C1482       C  0.95528599  0.00699609  0.79032117     0.30400
F1483       F  0.91818232  0.00892914  0.80347330    -0.19000
H1484       H  0.92794991  0.00848653  0.74732052     0.18800
H1485       H  0.55824393  0.50186836  0.80452406     0.18800
F1486       F  0.56740130  0.50256325  0.74854054    -0.19000
C1487       C  0.79059245  0.75996867  0.74758710    -0.20400
C1488       C  0.75257040  0.76404828  0.73249970    -0.08500
C1489       C  0.71605582  0.76723843  0.74877022     0.30400
C1490       C  0.71776173  0.76678083  0.77933064    -0.20400
C1491       C  0.75571675  0.76304920  0.79443361    -0.08500
C1492       C  0.79226013  0.75927491  0.77821252     0.30400
F1493       F  0.82953093  0.75621878  0.79188347    -0.19000
H1494       H  0.81919387  0.75723527  0.73566113     0.18800
H1495       H  0.68920108  0.76917099  0.79124192     0.18800
F1496       F  0.67855196  0.77162546  0.73527321    -0.19000
C1497       C  0.93474551  0.61422902  0.64704821    -0.20400
C1498       C  0.92679158  0.57573263  0.63934820    -0.08500
C1499       C  0.88509457  0.57077549  0.63591300     0.30400
C1500       C  0.85485397  0.60410767  0.63139902    -0.20400
C1501       C  0.86485170  0.64294916  0.63362569    -0.08500
C1502       C  0.90455236  0.64766112  0.64353461     0.30400
F1503       F  0.91472616  0.68448763  0.64889597    -0.19000
H1504       H  0.96486364  0.61874544  0.65504346     0.18800
H1505       H  0.82327613  0.59960110  0.62731870     0.18800
F1506       F  0.87257462  0.53500607  0.64085231    -0.19000
C1507       C  0.63974743  0.92143958  0.63362102    -0.20400
C1508       C  0.63002948  0.88259354  0.63080361    -0.08500
C1509       C  0.58949438  0.87615729  0.63622659     0.30400
C1510       C  0.55873495  0.90857062  0.64093873    -0.20400
C1511       C  0.56688283  0.94813429  0.63830730    -0.08500
C1512       C  0.60867174  0.95369413  0.63897429     0.30400
F1513       F  0.62001017  0.98833213  0.64868024    -0.19000
H1514       H  0.67158591  0.92645604  0.63313708     0.18800
H1515       H  0.52815469  0.90258950  0.64601232     0.18800
F1516       F  0.57931631  0.83865046  0.63622712    -0.19000
C1517       C  0.89441733  0.85385377  0.61690478    -0.20400
C1518       C  0.85592889  0.86197764  0.60265218    -0.08500
C1519       C  0.84823428  0.89580673  0.58409790     0.30400
C1520       C  0.87748947  0.92200655  0.58161347    -0.20400
C1521       C  0.91508668  0.91487849  0.59719971    -0.08500
C1522       C  0.92355247  0.87975987  0.61436340     0.30400
F1523       F  0.95859237  0.87173639  0.63072071    -0.19000
H1524       H  0.90166561  0.82792976  0.63103328     0.18800
H1525       H  0.87022456  0.94869044  0.56827564     0.18800
F1526       F  0.81195423  0.90456019  0.56921901    -0.19000
C1527       C  0.61979121  0.60118244  0.59193109    -0.20400
C1528       C  0.58156811  0.61006736  0.60583004    -0.08500
C1529       C  0.57258660  0.64689783  0.62068392     0.30400
C1530       C  0.60162777  0.67319045  0.62217875    -0.20400
C1531       C  0.64040939  0.66354542  0.60924911    -0.08500
C1532       C  0.64899542  0.62736371  0.59367141     0.30400
F1533       F  0.68620042  0.61630260  0.58111087    -0.19000
H1534       H  0.62759623  0.57323524  0.58034974     0.18800
H1535       H  0.59400337  0.70083018  0.63420724     0.18800
F1536       F  0.53698585  0.65667678  0.63552172    -0.19000
loop_ 
_geom_bond_atom_site_label_1 
_geom_bond_atom_site_label_2 
_geom_bond_distance 
_geom_bond_site_symmetry_2 
_ccdc_geom_bond_type 
O1           C17   1.279       .  A
O1           Zn7   2.052       .  S
C2           O18   1.275       .  A
C2           O15   1.276       .  A
C2          C366   1.489       .  S
O3           C16   1.277       .  A
O3          Cd10   2.067       .  S
O4           C22   1.273       .  A
O4          Cd13   2.058       .  S
O5           C19   1.276       .  A
O5           Cd9   2.067       .  S
O6           C17   1.272       .  A
O6           Cd9   2.047       .  S
Zn7          O18   2.032       .  S
Zn7          O20   2.043       .  S
Zn7          O12   1.946       .  S
O8           C19   1.276       .  A
O8          Cd13   2.070       .  S
Cd9          O11   2.074       .  S
Cd9          O12   1.985       .  S
Cd10         O14   2.066       .  S
Cd10         O23   2.078       .  S
Cd10         O12   1.989       .  S
O11          C21   1.276       .  A
O12         Cd13   1.988       .  S
Cd13         O15   2.069       .  S
O14          C21   1.273       .  A
C16          O20   1.280       .  A
C16         C177   1.473       .  S
C17         C356   1.475       .  S
C19         C336   1.482       .  S
C21         C379   1.486       .  S
C22          O23   1.276       .  A
C22         C349   1.478       .  S
C24          C27   1.532       .  S
C24         C359   1.537       .  S
C24         C794   1.549   1_455  S
C24         C412   1.547       .  S
C25          C30   1.530       .  S
C25         C346   1.536       .  S
C25         C413   1.554       .  S
C25         C799   1.551       .  S
C26         C792   1.549       .  S
C26          C34   1.380       .  A
C26          C29   1.400       .  A
C27          C38   1.376       .  A
C27        C1182   1.388   1_455  A
C28         C408   1.547   1_545  S
C28          C42   1.383       .  A
C28          C31   1.396       .  A
C29         C409   1.554       .  S
C29          C32   1.388       .  A
C30          C36   1.376       .  A
C30        C1179   1.388   1_545  A
C31         C793   1.548   1_455  S
C31          C39   1.380       .  A
C32          N33   1.357       .  A
C32          H45   1.076       .  S
N33          C34   1.354       .  A
N33         C369   1.446       .  S
C34          H35   1.079       .  S
C36        N1189   1.359       .  A
C36          H46   1.082       .  S
N37          C38   1.359   1_655  A
N37        C1188   1.359       .  A
N37         C326   1.438       .  S
C38          H44   1.082       .  S
C39          N40   1.356       .  A
C39          H41   1.080   1_455  S
N40          C42   1.358       .  A
N40         C376   1.446       .  S
C42          H43   1.076       .  S
O47          C63   1.277       .  A
O47         Zn53   2.030   1_455  S
C48          O64   1.276       .  A
C48          O61   1.272       .  A
C48         C296   1.480       .  S
O49         C446   1.277   1_456  A
O49         Cd56   2.090       .  S
O50          C68   1.273       .  A
O50        Cd443   2.042       .  S
O51         C449   1.271   1_455  A
O51         Cd55   2.057       .  S
O52          C63   1.269       .  A
O52         Cd55   2.022       .  S
Zn53         O66   2.057       .  S
Zn53        O832   2.029       .  S
Zn53         O58   1.945       .  S
O54        C1217   1.273       .  A
O54         Cd59   2.073       .  S
Cd55        O441   2.036   1_545  S
Cd55         O58   1.976   1_455  S
Cd56         O60   2.081       .  S
Cd56        O837   2.057   1_455  S
Cd56        O442   1.996   1_455  S
O57          C67   1.270       .  A
O57        Cd439   2.034       .  S
O58        Cd440   1.996   1_645  S
O58        Cd827   1.992       .  S
Cd59         O61   2.046       .  S
Cd59        O434   2.036   1_545  S
Cd59        O826   1.987       .  S
O60          C67   1.277       .  A
C62          O66   1.279   1_554  A
C62         O433   1.276   1_644  A
C62         C876   1.484       .  S
C63         C286   1.476       .  S
O64        Zn821   2.023       .  S
C65         O435   1.272   1_655  A
C65        O1206   1.273       .  A
C65         C329   1.486       .  S
C67         C306   1.479       .  S
C68          O69   1.274       .  A
C68         C319   1.473       .  S
O69        Cd824   2.055       .  S
C70          C72   1.540       .  S
C70          C74   1.530       .  S
C70          C73   1.543       .  S
C70         C299   1.528       .  S
C71          C75   1.531       .  S
C71          C77   1.522       .  S
C71          C76   1.549       .  S
C71         C309   1.522       .  S
C72          C80   1.380       .  A
C72          C75   1.406       .  A
C73          C84   1.380       .  A
C73          C76   1.399       .  A
C74          C88   1.375       .  A
C74          C77   1.384       .  A
C75          C78   1.376       .  A
C76          C82   1.379       .  A
C77          C85   1.370       .  A
C78          N79   1.349       .  A
C78          H91   1.081       .  S
N79          C80   1.350       .  A
N79         C316   1.432       .  S
C80          H81   1.082       .  S
C82          N83   1.358       .  A
C82          H92   1.080       .  S
N83          C84   1.359       .  A
N83         C339   1.442       .  S
C84          H90   1.082       .  S
C85          N86   1.353       .  A
C85          H87   1.082       .  S
N86          C88   1.357       .  A
N86         C289   1.428       .  S
C88          H89   1.083       .  S
O93         C109   1.274       .  A
O93        Zn867   2.004       .  S
C94         O110   1.275       .  A
C94         O107   1.273       .  A
C94         C276   1.473       .  S
O95         C108   1.274       .  A
O95        Cd102   2.083       .  S
O96         C114   1.274       .  A
O96        Cd105   2.053       .  S
O97         C879   1.275       .  A
O97        Cd101   2.085       .  S
O98         C109   1.272       .  A
O98        Cd485   2.043       .  S
Zn99        O110   1.999       .  S
Zn99        O112   2.047       .  S
Zn99        O861   2.010       .  S
Zn99        O488   1.936       .  S
O100        C111   1.275       .  A
O100       Cd105   2.082       .  S
Cd101       O103   2.042       .  S
Cd101       O482   2.045   1_545  S
Cd101       O872   1.989   1_455  S
Cd102       O115   2.058       .  S
Cd102       O874   2.048       .  S
Cd102       O104   1.991       .  S
O103        C113   1.273       .  A
O104       Zn483   1.937   1_545  S
O104       Cd105   1.990       .  S
O104       Cd869   1.992       .  S
Cd105       O491   2.040   1_545  S
O106        C113   1.272       .  A
O106       Cd870   2.040   1_455  S
O107       Cd489   2.044       .  S
C108        O496   1.275   1_545  A
C108        C830   1.481       .  S
C109        C256   1.475       .  S
C111        O865   1.275       .  A
C111        C236   1.493       .  S
O112        C492   1.276       .  A
C113        C249   1.469       .  S
C114        O115   1.274       .  A
C114        C266   1.478       .  S
C116        C118   1.529       .  S
C116        C120   1.531       .  S
C116        C119   1.543       .  S
C116        C259   1.520       .  S
C117        C121   1.536       .  S
C117        C123   1.529       .  S
C117        C122   1.546       .  S
C117        C269   1.522       .  S
C118        C126   1.373       .  A
C118        C121   1.399       .  A
C119        C130   1.380       .  A
C119        C122   1.392       .  A
C120        C134   1.374       .  A
C120        C123   1.395       .  A
C121        C124   1.377       .  A
C122        C128   1.382       .  A
C123        C131   1.373       .  A
C124        N125   1.350       .  A
C124        H137   1.083       .  S
N125        C126   1.349       .  A
N125        C279   1.424       .  S
C126        H127   1.082       .  S
C128        N129   1.361       .  A
C128        H138   1.081       .  S
N129        C130   1.360       .  A
N129        C229   1.446       .  S
C130        H136   1.082       .  S
C131        N132   1.350       .  A
C131        H133   1.081       .  S
N132        C134   1.349       .  A
N132        C246   1.424       .  S
C134        H135   1.083       .  S
C139        C141   1.531       .  S
C139        C142   1.543       .  S
C139        C206   1.529       .  S
C139        C911   1.533       .  S
C140        C196   1.532       .  S
C140        C912   1.551   1_455  S
C140        C530   1.548       .  S
C140        C529   1.537       .  S
C141        C533   1.378   1_545  A
C141        C528   1.405   1_545  A
C142        C153   1.384       .  A
C142        C913   1.393   1_545  A
C143        C907   1.537   1_455  S
C143        C157   1.372       .  A
C143        C146   1.402       .  A
C144        C908   1.549       .  S
C144        C147   1.379       .  A
C144        C525   1.391       .  A
C145        C524   1.536       .  S
C145        C910   1.393   1_465  A
C145        C535   1.378       .  A
C146        C524   1.553   1_545  S
C146        C154   1.386       .  A
C147        N148   1.353       .  A
C147        H160   1.079       .  S
N148        C149   1.353       .  A
N148        C216   1.426       .  S
C149        C525   1.373       .  A
C149        H534   1.083       .  S
H150        C533   1.083       .  S
C151        C529   1.378       .  A
C151       N1304   1.360   1_455  A
C151        H161   1.081       .  S
N152        C153   1.359       .  A
N152       C1303   1.358   1_545  A
N152        C239   1.446       .  S
C153        H159   1.082       .  S
C154        N155   1.355       .  A
C154        H156   1.078       .  S
N155        C157   1.350       .  A
N155        C189   1.438       .  S
C157        H158   1.081       .  S
O162        C178   1.274       .  A
O162       Zn168   2.007       .  S
C163        O179   1.274       .  A
C163        O176   1.274       .  A
C163        C209   1.464       .  S
O164        C177   1.274       .  A
O164       Cd171   2.074       .  S
O165        C183   1.277       .  A
O165       Cd174   2.071       .  S
O166        C180   1.277       .  A
O166       Cd170   2.085       .  S
O167        C178   1.274       .  A
O167       Cd170   2.054       .  S
Zn168       O179   2.018       .  S
Zn168       O181   2.028       .  S
Zn168       O173   1.943       .  S
O169        C180   1.276       .  A
O169       Cd174   2.082       .  S
Cd170       O172   2.060       .  S
Cd170       O173   1.992       .  S
Cd171       O175   2.054       .  S
Cd171       O184   2.037       .  S
Cd171       O173   1.992       .  S
O172        C182   1.273       .  A
O173       Cd174   1.992       .  S
Cd174       O176   2.064       .  S
O175        C182   1.273       .  A
C177        O181   1.275       .  A
C178        C186   1.477       .  S
C180        C226   1.494       .  S
C182        C199   1.465       .  S
C183        O184   1.271       .  A
C183        C219   1.474       .  S
C185        C186   1.408       .  A
C185        C190   1.398       .  A
C185        H192   1.083       .  S
C186        C187   1.407       .  A
C187        C188   1.390       .  A
C187        F194   1.358       .  S
C188        C189   1.406       .  A
C188        H193   1.082       .  S
C189        C190   1.405       .  A
C190        F191   1.357       .  S
C195        C196   1.409       .  A
C195        C200   1.394       .  A
C195        H202   1.079       .  S
C196        C197   1.410       .  A
C197        C198   1.396       .  A
C197        F204   1.354       .  S
C198        C199   1.400       .  A
C198        H203   1.084       .  S
C199        C200   1.400       .  A
C200        F201   1.358       .  S
C205        C206   1.413       .  A
C205        C210   1.396       .  A
C205        H212   1.082       .  S
C206        C207   1.411       .  A
C207        C208   1.398       .  A
C207        F214   1.354       .  S
C208        C209   1.399       .  A
C208        H213   1.084       .  S
C209        C210   1.398       .  A
C210        F211   1.358       .  S
C215        C216   1.402       .  A
C215        C220   1.391       .  A
C215        H222   1.084       .  S
C216        C217   1.397       .  A
C217        C218   1.396       .  A
C217        F224   1.357       .  S
C218        C219   1.411       .  A
C218        H223   1.083       .  S
C219        C220   1.406       .  A
C220        F221   1.358       .  S
C225        C226   1.408       .  A
C225        C230   1.402       .  A
C225        H232   1.083       .  S
C226        C227   1.412       .  A
C227        C228   1.402       .  A
C227        F234   1.357       .  S
C228        C229   1.405       .  A
C228        H233   1.083       .  S
C229        C230   1.408       .  A
C230        F231   1.357       .  S
C235        C240   1.400       .  A
C235        C620   1.409       .  A
C235        H242   1.083       .  S
C236        C237   1.411   1_545  A
C236        C619   1.407       .  A
C237        C238   1.402       .  A
C237        F244   1.357       .  S
C238        C239   1.405   1_565  A
C238        H243   1.083       .  S
C239        C624   1.408       .  A
C240        C623   1.405       .  A
C240        F241   1.357       .  S
C245        C246   1.399       .  A
C245        C250   1.390       .  A
C245        H252   1.083       .  S
C246        C247   1.402       .  A
C247        C248   1.389       .  A
C247        F254   1.357       .  S
C248        C249   1.405       .  A
C248        H253   1.083       .  S
C249        C250   1.409       .  A
C250        F251   1.358       .  S
C255        C256   1.405       .  A
C255        C260   1.394       .  A
C255        H262   1.083       .  S
C256        C257   1.404       .  A
C257        C258   1.390       .  A
C257        F264   1.358       .  S
C258        C259   1.409       .  A
C258        H263   1.080       .  S
C259        C260   1.409       .  A
C260        F261   1.357       .  S
C265        C266   1.404       .  A
C265        C270   1.394       .  A
C265        H272   1.083       .  S
C266        C267   1.406       .  A
C267        C268   1.392       .  A
C267        F274   1.358       .  S
C268        C269   1.408       .  A
C268        H273   1.079       .  S
C269        C270   1.411       .  A
C270        F271   1.357       .  S
C275        C276   1.407       .  A
C275        C280   1.391       .  A
C275        H282   1.083       .  S
C276        C277   1.410       .  A
C277        C278   1.391       .  A
C277        F284   1.358       .  S
C278        C279   1.399       .  A
C278        H283   1.083       .  S
C279        C280   1.400       .  A
C280        F281   1.357       .  S
C285        C286   1.405       .  A
C285        C290   1.395       .  A
C285        H292   1.083       .  S
C286        C287   1.413       .  A
C287        C288   1.390       .  A
C287        F294   1.358       .  S
C288        C289   1.397       .  A
C288        H293   1.083       .  S
C289        C290   1.404       .  A
C290        F291   1.357       .  S
C295        C296   1.407       .  A
C295        C300   1.398       .  A
C295        H302   1.084       .  S
C296        C297   1.403       .  A
C297        C298   1.392       .  A
C297        F304   1.358       .  S
C298        C299   1.411       .  A
C298        H303   1.080       .  S
C299        C300   1.410       .  A
C300        F301   1.357       .  S
C305        C306   1.400       .  A
C305        C310   1.394       .  A
C305        H312   1.083       .  S
C306        C307   1.410       .  A
C307        C308   1.393       .  A
C307        F314   1.358       .  S
C308        C309   1.404       .  A
C308        H313   1.077       .  S
C309        C310   1.414       .  A
C310        F311   1.357       .  S
C315        C316   1.402       .  A
C315        C320   1.392       .  A
C315        H322   1.083       .  S
C316        C317   1.406       .  A
C317        C318   1.391       .  A
C317        F324   1.356       .  S
C318        C319   1.405       .  A
C318        H323   1.083       .  S
C319        C320   1.408       .  A
C320        F321   1.358       .  S
C325        C330   1.400       .  A
C325       C1094   1.404       .  A
C325        H332   1.083       .  S
C326       C1093   1.403       .  A
C326        C711   1.404   1_655  A
C327        C328   1.397       .  A
C327        C710   1.404   1_455  A
C327        F334   1.357       .  S
C328        C713   1.408   1_455  A
C328        H333   1.083       .  S
C329        C712   1.408   1_655  A
C329       C1098   1.411       .  A
C330       C1097   1.410       .  A
C330        F331   1.357       .  S
C335        C336   1.407       .  A
C335        C340   1.399       .  A
C335        H342   1.083       .  S
C336        C337   1.408       .  A
C337        C338   1.396       .  A
C337        F344   1.358       .  S
C338        C339   1.405       .  A
C338        H343   1.082       .  S
C339        C340   1.407       .  A
C340        F341   1.356       .  S
C345        C346   1.409       .  A
C345        C350   1.396       .  A
C345        H352   1.081       .  S
C346        C347   1.410       .  A
C347        C348   1.400       .  A
C347        F354   1.353       .  S
C348        C349   1.403       .  A
C348        H353   1.083       .  S
C349        C350   1.405       .  A
C350        F351   1.358       .  S
C355        C356   1.402       .  A
C355        C360   1.402       .  A
C355        H362   1.083       .  S
C356        C357   1.404       .  A
C357        C358   1.394       .  A
C357        F364   1.358       .  S
C358        C359   1.407       .  A
C358        H363   1.080       .  S
C359        C360   1.411       .  A
C360        F361   1.354       .  S
C365        C366   1.404       .  A
C365        C370   1.394       .  A
C365        H372   1.083       .  S
C366        C367   1.412       .  A
C367        C368   1.404       .  A
C367        F374   1.357       .  S
C368        C369   1.406       .  A
C368        H373   1.082       .  S
C369        C370   1.412       .  A
C370        F371   1.356       .  S
C375        C376   1.405       .  A
C375        C380   1.399       .  A
C375        H382   1.082       .  S
C376        C377   1.413       .  A
C377        C378   1.397       .  A
C377        F384   1.356       .  S
C378        C379   1.404       .  A
C378        H383   1.083       .  S
C379        C380   1.410       .  A
C380        F381   1.357       .  S
O385        C401   1.279       .  A
O385       Zn391   2.054       .  S
C386        O402   1.274       .  A
C386        O399   1.278       .  A
C386        C750   1.489       .  S
O387        C400   1.278       .  A
O387       Cd394   2.073       .  S
O388        C406   1.274       .  A
O388       Cd397   2.066       .  S
O389        C403   1.275       .  A
O389       Cd393   2.061       .  S
O390        C401   1.271       .  A
O390       Cd393   2.044       .  S
Zn391       O402   2.024       .  S
Zn391       O404   2.041       .  S
Zn391       O396   1.948       .  S
O392        C403   1.277       .  A
O392       Cd397   2.080       .  S
Cd393       O395   2.070       .  S
Cd393       O396   1.982       .  S
Cd394       O398   2.075       .  S
Cd394       O407   2.081       .  S
Cd394       O396   1.990       .  S
O395        C405   1.275       .  A
O396       Cd397   1.992       .  S
Cd397       O399   2.077       .  S
O398        C405   1.274       .  A
C400        O404   1.279       .  A
C400        C561   1.474       .  S
C401        C740   1.476       .  S
C403        C720   1.482       .  S
C405        C763   1.488       .  S
C406        O407   1.277       .  A
C406        C733   1.481       .  S
C408       C1178   1.550   1_455  S
C408        C411   1.532       .  S
C408        C743   1.537       .  S
C409       C1183   1.547       .  S
C409        C414   1.530       .  S
C409        C730   1.538       .  S
C410       C1176   1.548       .  S
C410        C418   1.379       .  A
C410        C413   1.399   1_565  A
C411        C422   1.377       .  A
C411        C798   1.388   1_465  A
C412        C426   1.384       .  A
C412        C415   1.398       .  A
C413        C416   1.389   1_545  A
C414        C795   1.388       .  A
C414        C420   1.375       .  A
C415       C1177   1.551   1_455  S
C415        C423   1.381       .  A
C416        N417   1.357       .  A
C416        H429   1.077   1_565  S
N417        C418   1.353       .  A
N417        C753   1.444       .  S
C418        H419   1.080       .  S
C420        N805   1.358       .  A
C420        H430   1.083       .  S
N421        C804   1.358       .  A
N421        C422   1.360   1_645  A
N421        C710   1.439       .  S
C422        H428   1.082       .  S
C423        N424   1.355       .  A
C423        H425   1.080   1_455  S
N424        C426   1.357       .  A
N424        C760   1.444       .  S
C426        H427   1.078       .  S
O431        C447   1.275       .  A
O431       Zn437   2.013   1_455  S
C432        O448   1.277       .  A
C432        O445   1.272       .  A
C432        C680   1.479       .  S
O433       Cd440   2.087       .  S
O434        C452   1.273       .  A
O435       Cd439   2.060       .  S
O436        C447   1.270       .  A
O436       Cd439   2.024       .  S
Zn437      O1216   2.022       .  S
Zn437       O450   2.046       .  S
Zn437       O442   1.937       .  S
O438        C833   1.274       .  A
O438       Cd443   2.080       .  S
Cd439       O442   1.976   1_455  S
Cd440       O444   2.081       .  S
Cd440      O1221   2.055   1_455  S
O441        C451   1.270       .  A
O442      Cd1211   1.987       .  S
Cd443       O445   2.043       .  S
Cd443      O1210   1.991       .  S
O444        C451   1.277       .  A
C446        O450   1.277   1_554  A
C446       C1260   1.482       .  S
C447        C670   1.472       .  S
O448      Zn1205   2.029       .  S
C449        O822   1.274       .  A
C449        C713   1.487       .  S
C451        C690   1.480       .  S
C452        O453   1.274       .  A
C452        C703   1.471       .  S
O453      Cd1208   2.058       .  S
C454        C456   1.535       .  S
C454        C458   1.524       .  S
C454        C457   1.542       .  S
C454        C683   1.526       .  S
C455        C459   1.533       .  S
C455        C461   1.526       .  S
C455        C460   1.551       .  S
C455        C693   1.524       .  S
C456        C464   1.376       .  A
C456        C459   1.404       .  A
C457        C468   1.378       .  A
C457        C460   1.398       .  A
C458        C472   1.370       .  A
C458        C461   1.385       .  A
C459        C462   1.377       .  A
C460        C466   1.381       .  A
C461        C469   1.372       .  A
C462        N463   1.351       .  A
C462        H475   1.082       .  S
N463        C464   1.349       .  A
N463        C700   1.432       .  S
C464        H465   1.081       .  S
C466        N467   1.360       .  A
C466        H476   1.080       .  S
N467        C468   1.359       .  A
N467        C723   1.444       .  S
C468        H474   1.081       .  S
C469        N470   1.355       .  A
C469        H471   1.082       .  S
N470        C472   1.355       .  A
N470        C673   1.426       .  S
C472        H473   1.082       .  S
O477        C493   1.275       .  A
O477      Zn1251   2.011       .  S
C478        O494   1.274       .  A
C478        O491   1.272       .  A
C478        C660   1.472       .  S
O479        C492   1.274       .  A
O479       Cd486   2.083       .  S
O480        C498   1.273       .  A
O480       Cd489   2.053       .  S
O481       C1263   1.275   1_455  A
O481       Cd485   2.083       .  S
O482        C493   1.273       .  A
Zn483      O1245   2.002       .  S
Zn483       O494   1.998       .  S
Zn483       O496   2.040       .  S
O484        C495   1.275       .  A
O484       Cd489   2.082       .  S
Cd485       O487   2.049       .  S
Cd485      O1256   1.992   1_455  S
Cd486      O1258   2.039       .  S
Cd486       O499   2.045       .  S
Cd486       O488   1.988       .  S
O487        C497   1.274       .  A
O488      Cd1253   1.989       .  S
O488       Cd489   1.994       .  S
O490        C497   1.273       .  A
O490      Cd1254   2.046   1_455  S
C492       C1214   1.483       .  S
C493        C640   1.477       .  S
C495       O1249   1.275       .  A
C495        C620   1.495       .  S
C497        C633   1.471       .  S
C498        O499   1.273       .  A
C498        C650   1.475       .  S
C500        C502   1.530       .  S
C500        C504   1.531       .  S
C500        C503   1.545       .  S
C500        C643   1.520       .  S
C501        C505   1.538       .  S
C501        C507   1.530       .  S
C501        C506   1.543       .  S
C501        C653   1.521       .  S
C502        C510   1.373       .  A
C502        C505   1.400       .  A
C503        C514   1.381       .  A
C503        C506   1.391       .  A
C504        C518   1.373       .  A
C504        C507   1.391       .  A
C505        C508   1.378       .  A
C506        C512   1.381       .  A
C507        C515   1.373       .  A
C508        N509   1.349       .  A
C508        H521   1.083       .  S
N509        C510   1.349       .  A
N509        C663   1.425       .  S
C510        H511   1.082       .  S
C512        N513   1.361       .  A
C512        H522   1.082       .  S
N513        C514   1.361       .  A
N513        C613   1.448       .  S
C514        H520   1.081       .  S
C515        N516   1.354       .  A
C515        H517   1.082       .  S
N516        C518   1.354       .  A
N516        C630   1.430       .  S
C518        H519   1.082       .  S
C523        C525   1.520       .  S
C523       C1295   1.537       .  S
C523        C526   1.544       .  S
C523        C590   1.527       .  S
C524       C1296   1.549   1_455  S
C524        C580   1.534       .  S
C526        C537   1.383       .  A
C526       C1297   1.393       .  A
C527       C1291   1.535   1_455  S
C527        C541   1.371       .  A
C527        C530   1.391       .  A
C528       C1292   1.551       .  S
C528        C531   1.380       .  A
C529       C1294   1.390   1_455  A
C530        C538   1.384       .  A
C531        N532   1.351       .  A
C531        H544   1.080       .  S
N532        C533   1.351       .  A
N532        C600   1.433       .  S
C535        N920   1.357   1_565  A
C535        H545   1.082       .  S
N536        C919   1.357       .  A
N536        C537   1.359       .  A
N536        C623   1.440       .  S
C537        H543   1.081       .  S
C538        N539   1.358       .  A
C538        H540   1.077       .  S
N539        C541   1.356       .  A
N539        C573   1.442       .  S
C541        H542   1.081       .  S
O546        C562   1.273       .  A
O546       Zn552   2.005       .  S
C547        O563   1.272       .  A
C547        O560   1.274       .  A
C547        C593   1.461       .  S
O548        C561   1.275       .  A
O548       Cd555   2.081       .  S
O549        C567   1.278       .  A
O549       Cd558   2.079       .  S
O550        C564   1.276       .  A
O550       Cd554   2.082       .  S
O551        C562   1.274       .  A
O551       Cd554   2.051       .  S
Zn552       O563   2.003       .  S
Zn552       O565   2.023       .  S
Zn552       O557   1.943       .  S
O553        C564   1.276       .  A
O553       Cd558   2.087       .  S
Cd554       O556   2.057       .  S
Cd554       O557   1.987       .  S
Cd555       O559   2.061       .  S
Cd555       O568   2.040       .  S
Cd555       O557   1.991       .  S
O556        C566   1.273       .  A
O557       Cd558   1.996       .  S
Cd558       O560   2.067       .  S
O559        C566   1.273       .  A
C561        O565   1.274       .  A
C562        C570   1.474       .  S
C564        C610   1.494       .  S
C566        C583   1.467       .  S
C567        O568   1.272       .  A
C567        C603   1.479       .  S
C569        C570   1.406       .  A
C569        C574   1.399       .  A
C569        H576   1.083       .  S
C570        C571   1.404       .  A
C571        C572   1.389       .  A
C571        F578   1.358       .  S
C572        C573   1.406       .  A
C572        H577   1.081       .  S
C573        C574   1.410       .  A
C574        F575   1.356       .  S
C579        C580   1.409       .  A
C579        C584   1.394       .  A
C579        H586   1.076       .  S
C580        C581   1.411       .  A
C581        C582   1.398       .  A
C581        F588   1.355       .  S
C582        C583   1.401       .  A
C582        H587   1.084       .  S
C583        C584   1.401       .  A
C584        F585   1.358       .  S
C589        C590   1.413       .  A
C589        C594   1.392       .  A
C589        H596   1.082       .  S
C590        C591   1.409       .  A
C591        C592   1.398       .  A
C591        F598   1.355       .  S
C592        C593   1.401       .  A
C592        H597   1.083       .  S
C593        C594   1.397       .  A
C594        F595   1.358       .  S
C599        C600   1.406       .  A
C599        C604   1.394       .  A
C599        H606   1.082       .  S
C600        C601   1.400       .  A
C601        C602   1.395       .  A
C601        F608   1.357       .  S
C602        C603   1.410       .  A
C602        H607   1.083       .  S
C603        C604   1.407       .  A
C604        F605   1.357       .  S
C609        C610   1.407       .  A
C609        C614   1.401       .  A
C609        H616   1.083       .  S
C610        C611   1.411       .  A
C611        C612   1.403       .  A
C611        F618   1.357       .  S
C612        C613   1.406       .  A
C612        H617   1.083       .  S
C613        C614   1.410       .  A
C614        F615   1.356       .  S
C619        C624   1.401       .  A
C619        H626   1.083       .  S
C620        C621   1.414       .  A
C621        C622   1.403       .  A
C621        F628   1.357       .  S
C622        C623   1.402       .  A
C622        H627   1.083       .  S
C624        F625   1.357       .  S
C629        C630   1.401       .  A
C629        C634   1.391       .  A
C629        H636   1.083       .  S
C630        C631   1.405       .  A
C631        C632   1.392       .  A
C631        F638   1.357       .  S
C632        C633   1.405       .  A
C632        H637   1.083       .  S
C633        C634   1.408       .  A
C634        F635   1.358       .  S
C639        C640   1.404       .  A
C639        C644   1.392       .  A
C639        H646   1.083       .  S
C640        C641   1.406       .  A
C641        C642   1.394       .  A
C641        F648   1.358       .  S
C642        C643   1.409       .  A
C642        H647   1.080       .  S
C643        C644   1.410       .  A
C644        F645   1.357       .  S
C649        C650   1.405       .  A
C649        C654   1.396       .  A
C649        H656   1.083       .  S
C650        C651   1.405       .  A
C651        C652   1.387       .  A
C651        F658   1.358       .  S
C652        C653   1.407       .  A
C652        H657   1.078       .  S
C653        C654   1.410       .  A
C654        F655   1.357       .  S
C659        C660   1.407       .  A
C659        C664   1.392       .  A
C659        H666   1.083       .  S
C660        C661   1.410       .  A
C661        C662   1.389       .  A
C661        F668   1.357       .  S
C662        C663   1.399       .  A
C662        H667   1.083       .  S
C663        C664   1.401       .  A
C664        F665   1.357       .  S
C669        C670   1.405       .  A
C669        C674   1.393       .  A
C669        H676   1.083       .  S
C670        C671   1.411       .  A
C671        C672   1.389       .  A
C671        F678   1.358       .  S
C672        C673   1.399       .  A
C672        H677   1.083       .  S
C673        C674   1.402       .  A
C674        F675   1.357       .  S
C679        C680   1.407       .  A
C679        C684   1.397       .  A
C679        H686   1.084       .  S
C680        C681   1.402       .  A
C681        C682   1.391       .  A
C681        F688   1.358       .  S
C682        C683   1.411       .  A
C682        H687   1.081       .  S
C683        C684   1.409       .  A
C684        F685   1.357       .  S
C689        C690   1.401       .  A
C689        C694   1.395       .  A
C689        H696   1.083       .  S
C690        C691   1.410       .  A
C691        C692   1.394       .  A
C691        F698   1.358       .  S
C692        C693   1.405       .  A
C692        H697   1.077       .  S
C693        C694   1.415       .  A
C694        F695   1.357       .  S
C699        C700   1.404       .  A
C699        C704   1.391       .  A
C699        H706   1.083       .  S
C700        C701   1.405       .  A
C701        C702   1.391       .  A
C701        F708   1.356       .  S
C702        C703   1.406       .  A
C702        H707   1.083       .  S
C703        C704   1.406       .  A
C704        F705   1.358       .  S
C709       C1478   1.403       .  A
C709        C714   1.399       .  A
C709        H716   1.083       .  S
C710       C1477   1.404       .  A
C711        C712   1.397       .  A
C711        F718   1.357       .  S
C712        H717   1.083       .  S
C713       C1482   1.410       .  A
C714       C1481   1.411       .  A
C714        F715   1.357       .  S
C719        C720   1.405       .  A
C719        C724   1.400       .  A
C719        H726   1.083       .  S
C720        C721   1.409       .  A
C721        C722   1.397       .  A
C721        F728   1.358       .  S
C722        C723   1.406       .  A
C722        H727   1.082       .  S
C723        C724   1.409       .  A
C724        F725   1.356       .  S
C729        C730   1.410       .  A
C729        C734   1.398       .  A
C729        H736   1.082       .  S
C730        C731   1.409       .  A
C731        C732   1.399       .  A
C731        F738   1.351       .  S
C732        C733   1.403       .  A
C732        H737   1.083       .  S
C733        C734   1.406       .  A
C734        F735   1.357       .  S
C739        C740   1.402       .  A
C739        C744   1.403       .  A
C739        H746   1.083       .  S
C740        C741   1.404       .  A
C741        C742   1.394       .  A
C741        F748   1.358       .  S
C742        C743   1.407       .  A
C742        H747   1.081       .  S
C743        C744   1.412       .  A
C744        F745   1.354       .  S
C749        C750   1.403       .  A
C749        C754   1.393       .  A
C749        H756   1.083       .  S
C750        C751   1.414       .  A
C751        C752   1.405       .  A
C751        F758   1.357       .  S
C752        C753   1.404       .  A
C752        H757   1.083       .  S
C753        C754   1.411       .  A
C754        F755   1.356       .  S
C759        C760   1.405       .  A
C759        C764   1.401       .  A
C759        H766   1.083       .  S
C760        C761   1.411       .  A
C761        C762   1.396       .  A
C761        F768   1.357       .  S
C762        C763   1.405       .  A
C762        H767   1.083       .  S
C763        C764   1.411       .  A
C764        F765   1.357       .  S
O769        C785   1.279       .  A
O769       Zn775   2.056       .  S
C770        O786   1.274       .  A
C770        O783   1.278       .  A
C770       C1134   1.490       .  S
O771        C784   1.277       .  A
O771       Cd778   2.072       .  S
O772        C790   1.274       .  A
O772       Cd781   2.066       .  S
O773        C787   1.275       .  A
O773       Cd777   2.062       .  S
O774        C785   1.272       .  A
O774       Cd777   2.044       .  S
Zn775       O786   2.026       .  S
Zn775       O788   2.041       .  S
Zn775       O780   1.948       .  S
O776        C787   1.277       .  A
O776       Cd781   2.081       .  S
Cd777       O779   2.071       .  S
Cd777       O780   1.982       .  S
Cd778       O782   2.075       .  S
Cd778       O791   2.079       .  S
Cd778       O780   1.990       .  S
O779        C789   1.275       .  A
O780       Cd781   1.992       .  S
Cd781       O783   2.077       .  S
O782        C789   1.274       .  A
C784        O788   1.279       .  A
C784        C945   1.474       .  S
C785       C1124   1.476       .  S
C787       C1104   1.483       .  S
C789       C1147   1.488       .  S
C790        O791   1.277       .  A
C790       C1117   1.480       .  S
C792       C1180   1.547       .  S
C792        C795   1.532       .  S
C792       C1127   1.538       .  S
C793       C1181   1.555       .  S
C793        C798   1.530       .  S
C793       C1114   1.537       .  S
C794        C802   1.379       .  A
C794        C797   1.399       .  A
C795        C806   1.377       .  A
C796       C1176   1.547   1_545  S
C796        C810   1.384       .  A
C796        C799   1.397       .  A
C797       C1177   1.554       .  S
C797        C800   1.389       .  A
C798        C804   1.375       .  A
C799        C807   1.381       .  A
C800        N801   1.357       .  A
C800        H813   1.077       .  S
N801        C802   1.353       .  A
N801       C1137   1.444       .  S
C802        H803   1.080   1_655  S
C804        H814   1.083       .  S
N805        C806   1.360       .  A
N805       C1094   1.439       .  S
C806        H812   1.082       .  S
C807        N808   1.355       .  A
C807        H809   1.080       .  S
N808        C810   1.357       .  A
N808       C1144   1.445       .  S
C810        H811   1.078       .  S
O815        C831   1.275       .  A
O815       Zn821   2.013       .  S
C816        O832   1.277       .  A
C816        O829   1.272       .  A
C816       C1064   1.479       .  S
O817       C1214   1.276   1_556  A
O817       Cd824   2.085       .  S
O818        C836   1.273       .  A
O818      Cd1211   2.037       .  S
O819       C1217   1.272       .  A
O819       Cd823   2.059       .  S
O820        C831   1.270       .  A
O820       Cd823   2.025       .  S
Zn821       O834   2.043       .  S
Zn821       O826   1.938       .  S
O822       Cd827   2.080       .  S
Cd823      O1209   2.034   1_545  S
Cd823       O826   1.976       .  S
Cd824       O828   2.081       .  S
Cd824      O1210   1.996       .  S
O825        C835   1.270       .  A
O825      Cd1207   2.036       .  S
O826      Cd1208   1.996   1_545  S
Cd827      O1202   2.043   1_545  S
Cd827       O829   2.043       .  S
O828        C835   1.277       .  A
C830       O1201   1.277   1_544  A
C830        O834   1.277   1_554  A
C831       C1054   1.472       .  S
C833       O1203   1.271       .  A
C833       C1097   1.486       .  S
C835       C1074   1.480       .  S
C836        O837   1.274       .  A
C836       C1087   1.471       .  S
C838        C840   1.535       .  S
C838        C842   1.525       .  S
C838        C841   1.542       .  S
C838       C1067   1.526       .  S
C839        C843   1.533       .  S
C839        C845   1.526       .  S
C839        C844   1.552       .  S
C839       C1077   1.524       .  S
C840        C848   1.376       .  A
C840        C843   1.404       .  A
C841        C852   1.378       .  A
C841        C844   1.398       .  A
C842        C856   1.371       .  A
C842        C845   1.385       .  A
C843        C846   1.378       .  A
C844        C850   1.381       .  A
C845        C853   1.372       .  A
C846        N847   1.351       .  A
C846        H859   1.082       .  S
N847        C848   1.349       .  A
N847       C1084   1.433       .  S
C848        H849   1.081       .  S
C850        N851   1.360       .  A
C850        H860   1.080       .  S
N851        C852   1.359       .  A
N851       C1107   1.444       .  S
C852        H858   1.081       .  S
C853        N854   1.355       .  A
C853        H855   1.082       .  S
N854        C856   1.355       .  A
N854       C1057   1.427       .  S
C856        H857   1.082       .  S
O861        C877   1.274       .  A
C862        O878   1.274       .  A
C862        O875   1.272       .  A
C862       C1044   1.471       .  S
O863        C876   1.274       .  A
O863       Cd870   2.085       .  S
O864        C882   1.272       .  A
O864       Cd873   2.051       .  S
O865       Cd869   2.085       .  S
O866        C877   1.273       .  A
O866      Cd1253   2.046       .  S
Zn867       O878   1.995   1_455  S
Zn867       O880   2.042       .  S
Zn867      O1256   1.937   1_455  S
O868        C879   1.275   1_655  A
O868       Cd873   2.080       .  S
Cd869      O1250   2.044   1_545  S
Cd869       O871   2.051       .  S
Cd870       O883   2.046       .  S
Cd870       O872   1.988       .  S
O871        C881   1.274       .  A
O872      Zn1251   1.936   1_645  S
O872       Cd873   1.994       .  S
Cd873      O1259   2.041   1_545  S
O874        C881   1.273       .  A
O875      Cd1257   2.041       .  S
C876       O1264   1.276   1_645  A
C877       C1024   1.477       .  S
C879       C1004   1.494       .  S
O880       C1260   1.275   1_455  A
C881       C1017   1.473       .  S
C882        O883   1.273       .  A
C882       C1034   1.475       .  S
C884        C886   1.531       .  S
C884        C888   1.532       .  S
C884        C887   1.545       .  S
C884       C1027   1.520       .  S
C885        C889   1.537       .  S
C885        C891   1.529       .  S
C885        C890   1.543       .  S
C885       C1037   1.521       .  S
C886        C894   1.374       .  A
C886        C889   1.401       .  A
C887        C898   1.381       .  A
C887        C890   1.391       .  A
C888        C902   1.374       .  A
C888        C891   1.390       .  A
C889        C892   1.378       .  A
C890        C896   1.381       .  A
C891        C899   1.372       .  A
C892        N893   1.349       .  A
C892        H905   1.083       .  S
N893        C894   1.349       .  A
N893       C1047   1.426       .  S
C894        H895   1.082       .  S
C896        N897   1.361       .  A
C896        H906   1.082       .  S
N897        C898   1.361       .  A
N897        C997   1.448       .  S
C898        H904   1.081       .  S
C899        N900   1.354       .  A
C899        H901   1.082       .  S
N900        C902   1.355       .  A
N900       C1014   1.430       .  S
C902        H903   1.082       .  S
C907        C909   1.521   1_545  S
C907        C910   1.543       .  S
C907        C974   1.528       .  S
C908       C1298   1.552       .  S
C908       C1297   1.536       .  S
C908        C964   1.534       .  S
C909       C1301   1.373       .  A
C909       C1296   1.392       .  A
C910        C921   1.383       .  A
C911        C925   1.372       .  A
C911        C914   1.390       .  A
C912       C1293   1.403       .  A
C912        C915   1.379       .  A
C913       C1292   1.538       .  S
C913       C1303   1.379       .  A
C914       C1292   1.548   1_545  S
C914        C922   1.383       .  A
C915        N916   1.350       .  A
C915        H928   1.080       .  S
N916        C917   1.352       .  A
N916        C984   1.433       .  S
C917       C1293   1.378       .  A
C917       H1302   1.082       .  S
H918       C1301   1.083       .  S
C919       C1297   1.378       .  A
C919        H929   1.082       .  S
N920        C921   1.359   1_455  A
N920       C1007   1.440       .  S
C921        H927   1.081       .  S
C922        N923   1.359       .  A
C922        H924   1.076       .  S
N923        C925   1.356       .  A
N923        C957   1.444       .  S
C925        H926   1.081       .  S
O930        C946   1.273       .  A
O930       Zn936   2.007       .  S
C931        O947   1.273       .  A
C931        O944   1.274       .  A
C931        C977   1.462       .  S
O932        C945   1.274       .  A
O932       Cd939   2.079       .  S
O933        C951   1.278       .  A
O933       Cd942   2.079       .  S
O934        C948   1.277       .  A
O934       Cd938   2.084       .  S
O935        C946   1.274       .  A
O935       Cd938   2.053       .  S
Zn936       O947   2.007       .  S
Zn936       O949   2.025       .  S
Zn936       O941   1.943       .  S
O937        C948   1.276       .  A
O937       Cd942   2.085       .  S
Cd938       O940   2.056       .  S
Cd938       O941   1.987       .  S
Cd939       O943   2.061       .  S
Cd939       O952   2.039       .  S
Cd939       O941   1.992       .  S
O940        C950   1.273       .  A
O941       Cd942   1.996       .  S
Cd942       O944   2.067       .  S
O943        C950   1.273       .  A
C945        O949   1.275       .  A
C946        C954   1.475       .  S
C948        C994   1.493       .  S
C950        C967   1.467       .  S
C951        O952   1.272       .  A
C951        C987   1.479       .  S
C953        C954   1.405       .  A
C953        C958   1.398       .  A
C953        H960   1.083       .  S
C954        C955   1.404       .  A
C955        C956   1.390       .  A
C955        F962   1.358       .  S
C956        C957   1.407       .  A
C956        H961   1.081       .  S
C957        C958   1.411       .  A
C958        F959   1.356       .  S
C963        C964   1.408       .  A
C963        C968   1.392       .  A
C963        H970   1.076       .  S
C964        C965   1.412       .  A
C965        C966   1.399       .  A
C965        F972   1.355       .  S
C966        C967   1.401       .  A
C966        H971   1.083       .  S
C967        C968   1.400       .  A
C968        F969   1.358       .  S
C973        C974   1.413       .  A
C973        C978   1.392       .  A
C973        H980   1.082       .  S
C974        C975   1.409       .  A
C975        C976   1.399       .  A
C975        F982   1.355       .  S
C976        C977   1.401       .  A
C976        H981   1.083       .  S
C977        C978   1.396       .  A
C978        F979   1.358       .  S
C983        C984   1.405       .  A
C983        C988   1.394       .  A
C983        H990   1.082       .  S
C984        C985   1.399       .  A
C985        C986   1.395       .  A
C985        F992   1.357       .  S
C986        C987   1.411       .  A
C986        H991   1.083       .  S
C987        C988   1.407       .  A
C988        F989   1.358       .  S
C993        C994   1.407       .  A
C993        C998   1.401       .  A
C993       H1000   1.083       .  S
C994        C995   1.411       .  A
C995        C996   1.402       .  A
C995       F1002   1.357       .  S
C996        C997   1.406       .  A
C996       H1001   1.083       .  S
C997        C998   1.410       .  A
C998        F999   1.356       .  S
C1003      C1388   1.406       .  A
C1003      C1008   1.401       .  A
C1003      H1010   1.083       .  S
C1004      C1387   1.409   1_455  A
C1004      C1005   1.413       .  A
C1005      C1006   1.402       .  A
C1005      F1012   1.357       .  S
C1006      C1007   1.402       .  A
C1006      H1011   1.083       .  S
C1007      C1392   1.404   1_455  A
C1008      C1391   1.410       .  A
C1008      F1009   1.357       .  S
C1013      C1014   1.401       .  A
C1013      C1018   1.392       .  A
C1013      H1020   1.083       .  S
C1014      C1015   1.404       .  A
C1015      C1016   1.391       .  A
C1015      F1022   1.357       .  S
C1016      C1017   1.405       .  A
C1016      H1021   1.083       .  S
C1017      C1018   1.409       .  A
C1018      F1019   1.358       .  S
C1023      C1024   1.404       .  A
C1023      C1028   1.392       .  A
C1023      H1030   1.083       .  S
C1024      C1025   1.406       .  A
C1025      C1026   1.394       .  A
C1025      F1032   1.358       .  S
C1026      C1027   1.408       .  A
C1026      H1031   1.080       .  S
C1027      C1028   1.410       .  A
C1028      F1029   1.357       .  S
C1033      C1034   1.405       .  A
C1033      C1038   1.396       .  A
C1033      H1040   1.083       .  S
C1034      C1035   1.405       .  A
C1035      C1036   1.387       .  A
C1035      F1042   1.358       .  S
C1036      C1037   1.407       .  A
C1036      H1041   1.078       .  S
C1037      C1038   1.410       .  A
C1038      F1039   1.357       .  S
C1043      C1044   1.406       .  A
C1043      C1048   1.391       .  A
C1043      H1050   1.083       .  S
C1044      C1045   1.409       .  A
C1045      C1046   1.389       .  A
C1045      F1052   1.357       .  S
C1046      C1047   1.400       .  A
C1046      H1051   1.083       .  S
C1047      C1048   1.402       .  A
C1048      F1049   1.357       .  S
C1053      C1054   1.405       .  A
C1053      C1058   1.393       .  A
C1053      H1060   1.083       .  S
C1054      C1055   1.411       .  A
C1055      C1056   1.389       .  A
C1055      F1062   1.358       .  S
C1056      C1057   1.399       .  A
C1056      H1061   1.083       .  S
C1057      C1058   1.402       .  A
C1058      F1059   1.357       .  S
C1063      C1064   1.407       .  A
C1063      C1068   1.397       .  A
C1063      H1070   1.084       .  S
C1064      C1065   1.402       .  A
C1065      C1066   1.391       .  A
C1065      F1072   1.358       .  S
C1066      C1067   1.411       .  A
C1066      H1071   1.081       .  S
C1067      C1068   1.409       .  A
C1068      F1069   1.357       .  S
C1073      C1074   1.401       .  A
C1073      C1078   1.395       .  A
C1073      H1080   1.083       .  S
C1074      C1075   1.410       .  A
C1075      C1076   1.394       .  A
C1075      F1082   1.358       .  S
C1076      C1077   1.405       .  A
C1076      H1081   1.077       .  S
C1077      C1078   1.415       .  A
C1078      F1079   1.357       .  S
C1083      C1084   1.404       .  A
C1083      C1088   1.391       .  A
C1083      H1090   1.083       .  S
C1084      C1085   1.406       .  A
C1085      C1086   1.391       .  A
C1085      F1092   1.356       .  S
C1086      C1087   1.405       .  A
C1086      H1091   1.083       .  S
C1087      C1088   1.406       .  A
C1088      F1089   1.358       .  S
C1093      C1098   1.400       .  A
C1093      H1100   1.083       .  S
C1094      C1479   1.404       .  A
C1095      C1478   1.404       .  A
C1095      C1096   1.397       .  A
C1095      F1102   1.357       .  S
C1096      C1481   1.408       .  A
C1096      H1101   1.083       .  S
C1097      C1480   1.408       .  A
C1098      F1099   1.357       .  S
C1103      C1104   1.405       .  A
C1103      C1108   1.400       .  A
C1103      H1110   1.083       .  S
C1104      C1105   1.409       .  A
C1105      C1106   1.397       .  A
C1105      F1112   1.358       .  S
C1106      C1107   1.406       .  A
C1106      H1111   1.082       .  S
C1107      C1108   1.409       .  A
C1108      F1109   1.356       .  S
C1113      C1114   1.410       .  A
C1113      C1118   1.397       .  A
C1113      H1120   1.082       .  S
C1114      C1115   1.409       .  A
C1115      C1116   1.399       .  A
C1115      F1122   1.351       .  S
C1116      C1117   1.403       .  A
C1116      H1121   1.083       .  S
C1117      C1118   1.406       .  A
C1118      F1119   1.357       .  S
C1123      C1124   1.402       .  A
C1123      C1128   1.403       .  A
C1123      H1130   1.083       .  S
C1124      C1125   1.404       .  A
C1125      C1126   1.394       .  A
C1125      F1132   1.358       .  S
C1126      C1127   1.407       .  A
C1126      H1131   1.081       .  S
C1127      C1128   1.412       .  A
C1128      F1129   1.354       .  S
C1133      C1134   1.403       .  A
C1133      C1138   1.393       .  A
C1133      H1140   1.083       .  S
C1134      C1135   1.414       .  A
C1135      C1136   1.405       .  A
C1135      F1142   1.357       .  S
C1136      C1137   1.404       .  A
C1136      H1141   1.083       .  S
C1137      C1138   1.411       .  A
C1138      F1139   1.356       .  S
C1143      C1144   1.405       .  A
C1143      C1148   1.401       .  A
C1143      H1150   1.083       .  S
C1144      C1145   1.411       .  A
C1145      C1146   1.396       .  A
C1145      F1152   1.357       .  S
C1146      C1147   1.405       .  A
C1146      H1151   1.083       .  S
C1147      C1148   1.411       .  A
C1148      F1149   1.357       .  S
O1153      C1169   1.279       .  A
O1153     Zn1159   2.053       .  S
C1154      O1170   1.275       .  A
C1154      O1167   1.277       .  A
C1154      C1518   1.490       .  S
O1155      C1168   1.276       .  A
O1155     Cd1162   2.066       .  S
O1156      C1174   1.273       .  A
O1156     Cd1165   2.059       .  S
O1157      C1171   1.275       .  A
O1157     Cd1161   2.066       .  S
O1158      C1169   1.272       .  A
O1158     Cd1161   2.046       .  S
Zn1159     O1170   2.034       .  S
Zn1159     O1172   2.043       .  S
Zn1159     O1164   1.947       .  S
O1160      C1171   1.276       .  A
O1160     Cd1165   2.072       .  S
Cd1161     O1163   2.073       .  S
Cd1161     O1164   1.985       .  S
Cd1162     O1166   2.066       .  S
Cd1162     O1175   2.077       .  S
Cd1162     O1164   1.989       .  S
O1163      C1173   1.275       .  A
O1164     Cd1165   1.988       .  S
Cd1165     O1167   2.071       .  S
O1166      C1173   1.273       .  A
C1168      O1172   1.280       .  A
C1168      C1329   1.472       .  S
C1169      C1508   1.475       .  S
C1171      C1488   1.482       .  S
C1173      C1531   1.485       .  S
C1174      O1175   1.276       .  A
C1174      C1501   1.478       .  S
C1176      C1179   1.532       .  S
C1176      C1511   1.536       .  S
C1177      C1182   1.530       .  S
C1177      C1498   1.536       .  S
C1178      C1186   1.380       .  A
C1178      C1181   1.400   1_565  A
C1179      C1190   1.376       .  A
C1180      C1194   1.383       .  A
C1180      C1183   1.397       .  A
C1181      C1184   1.388   1_545  A
C1182      C1188   1.377       .  A
C1183      C1191   1.380       .  A
C1184      N1185   1.357       .  A
C1184      H1197   1.076       .  S
N1185      C1186   1.354       .  A
N1185      C1521   1.447       .  S
C1186      H1187   1.080   1_655  S
C1188      H1198   1.082       .  S
N1189      C1190   1.359   1_545  A
N1189      C1478   1.438       .  S
C1190      H1196   1.082       .  S
C1191      N1192   1.356       .  A
C1191      H1193   1.080       .  S
N1192      C1194   1.358       .  A
N1192      C1528   1.446       .  S
C1194      H1195   1.076       .  S
O1199      C1215   1.277       .  A
O1199     Zn1205   2.030       .  S
C1200      O1216   1.276       .  A
C1200      O1213   1.272       .  A
C1200      C1448   1.479       .  S
O1201     Cd1208   2.088       .  S
O1202      C1220   1.273       .  A
O1203     Cd1207   2.055       .  S
O1204      C1215   1.269       .  A
O1204     Cd1207   2.020       .  S
Zn1205     O1218   2.056       .  S
Zn1205     O1210   1.945       .  S
O1206     Cd1211   2.074       .  S
Cd1207     O1210   1.975       .  S
Cd1208     O1212   2.082       .  S
O1209      C1219   1.270       .  A
Cd1211     O1213   2.045       .  S
O1212      C1219   1.277       .  A
C1214      O1218   1.279   1_554  A
C1215      C1438   1.475       .  S
C1217      C1481   1.486       .  S
C1219      C1458   1.479       .  S
C1220      O1221   1.274       .  A
C1220      C1471   1.473       .  S
C1222      C1224   1.540       .  S
C1222      C1226   1.530       .  S
C1222      C1225   1.542       .  S
C1222      C1451   1.527       .  S
C1223      C1227   1.531       .  S
C1223      C1229   1.522       .  S
C1223      C1228   1.550       .  S
C1223      C1461   1.523       .  S
C1224      C1232   1.380       .  A
C1224      C1227   1.405       .  A
C1225      C1236   1.380       .  A
C1225      C1228   1.399       .  A
C1226      C1240   1.375       .  A
C1226      C1229   1.384       .  A
C1227      C1230   1.376       .  A
C1228      C1234   1.379       .  A
C1229      C1237   1.369       .  A
C1230      N1231   1.349       .  A
C1230      H1243   1.081       .  S
N1231      C1232   1.350       .  A
N1231      C1468   1.432       .  S
C1232      H1233   1.082       .  S
C1234      N1235   1.358       .  A
C1234      H1244   1.080       .  S
N1235      C1236   1.359       .  A
N1235      C1491   1.442       .  S
C1236      H1242   1.082       .  S
C1237      N1238   1.353       .  A
C1237      H1239   1.082       .  S
N1238      C1240   1.357       .  A
N1238      C1441   1.427       .  S
C1240      H1241   1.083       .  S
O1245      C1261   1.274       .  A
C1246      O1262   1.275       .  A
C1246      O1259   1.273       .  A
C1246      C1428   1.472       .  S
O1247      C1260   1.274       .  A
O1247     Cd1254   2.085       .  S
O1248      C1266   1.274       .  A
O1248     Cd1257   2.054       .  S
O1249     Cd1253   2.085       .  S
O1250      C1261   1.272       .  A
Zn1251     O1262   1.998   1_455  S
Zn1251     O1264   2.049       .  S
O1252      C1263   1.275       .  A
O1252     Cd1257   2.083       .  S
Cd1253     O1255   2.041       .  S
Cd1254     O1267   2.057       .  S
Cd1254     O1256   1.991       .  S
O1255      C1265   1.273       .  A
O1256     Cd1257   1.992       .  S
O1258      C1265   1.271       .  A
C1261      C1408   1.475       .  S
C1263      C1388   1.491       .  S
C1265      C1401   1.469       .  S
C1266      O1267   1.274       .  A
C1266      C1418   1.478       .  S
C1268      C1270   1.530       .  S
C1268      C1272   1.530       .  S
C1268      C1271   1.543       .  S
C1268      C1411   1.519       .  S
C1269      C1273   1.537       .  S
C1269      C1275   1.528       .  S
C1269      C1274   1.545       .  S
C1269      C1421   1.522       .  S
C1270      C1278   1.373       .  A
C1270      C1273   1.401       .  A
C1271      C1282   1.380       .  A
C1271      C1274   1.393       .  A
C1272      C1286   1.374       .  A
C1272      C1275   1.392       .  A
C1273      C1276   1.377       .  A
C1274      C1280   1.382       .  A
C1275      C1283   1.372       .  A
C1276      N1277   1.350       .  A
C1276      H1289   1.083       .  S
N1277      C1278   1.348       .  A
N1277      C1431   1.423       .  S
C1278      H1279   1.082       .  S
C1280      N1281   1.360       .  A
C1280      H1290   1.081       .  S
N1281      C1282   1.360       .  A
N1281      C1381   1.445       .  S
C1282      H1288   1.082       .  S
C1283      N1284   1.351       .  A
C1283      H1285   1.082       .  S
N1284      C1286   1.350       .  A
N1284      C1398   1.423       .  S
C1286      H1287   1.083       .  S
C1291      C1293   1.530       .  S
C1291      C1294   1.542       .  S
C1291      C1358   1.528       .  S
C1292      C1348   1.534       .  S
C1294      C1305   1.383       .  A
C1295      C1309   1.371       .  A
C1295      C1298   1.403       .  A
C1296      C1299   1.379       .  A
C1298      C1306   1.386       .  A
C1299      N1300   1.353       .  A
C1299      H1312   1.079       .  S
N1300      C1301   1.352       .  A
N1300      C1368   1.425       .  S
C1303      H1313   1.082       .  S
N1304      C1305   1.362       .  A
N1304      C1391   1.449       .  S
C1305      H1311   1.082       .  S
C1306      N1307   1.355       .  A
C1306      H1308   1.078       .  S
N1307      C1309   1.350       .  A
N1307      C1341   1.437       .  S
C1309      H1310   1.081       .  S
O1314      C1330   1.273       .  A
O1314     Zn1320   2.001       .  S
C1315      O1331   1.274       .  A
C1315      O1328   1.273       .  A
C1315      C1361   1.463       .  S
O1316      C1329   1.273       .  A
O1316     Cd1323   2.073       .  S
O1317      C1335   1.276       .  A
O1317     Cd1326   2.069       .  S
O1318      C1332   1.277       .  A
O1318     Cd1322   2.088       .  S
O1319      C1330   1.274       .  A
O1319     Cd1322   2.052       .  S
Zn1320     O1331   2.018       .  S
Zn1320     O1333   2.028       .  S
Zn1320     O1325   1.942       .  S
O1321      C1332   1.275       .  A
O1321     Cd1326   2.079       .  S
Cd1322     O1324   2.064       .  S
Cd1322     O1325   1.993       .  S
Cd1323     O1327   2.053       .  S
Cd1323     O1336   2.037       .  S
Cd1323     O1325   1.991       .  S
O1324      C1334   1.273       .  A
O1325     Cd1326   1.991       .  S
Cd1326     O1328   2.064       .  S
O1327      C1334   1.273       .  A
C1329      O1333   1.275       .  A
C1330      C1338   1.475       .  S
C1332      C1378   1.494       .  S
C1334      C1351   1.467       .  S
C1335      O1336   1.271       .  A
C1335      C1371   1.473       .  S
C1337      C1338   1.408       .  A
C1337      C1342   1.397       .  A
C1337      H1344   1.083       .  S
C1338      C1339   1.406       .  A
C1339      C1340   1.389       .  A
C1339      F1346   1.358       .  S
C1340      C1341   1.406       .  A
C1340      H1345   1.082       .  S
C1341      C1342   1.404       .  A
C1342      F1343   1.357       .  S
C1347      C1348   1.410       .  A
C1347      C1352   1.395       .  A
C1347      H1354   1.080       .  S
C1348      C1349   1.411       .  A
C1349      C1350   1.395       .  A
C1349      F1356   1.353       .  S
C1350      C1351   1.399       .  A
C1350      H1355   1.084       .  S
C1351      C1352   1.401       .  A
C1352      F1353   1.358       .  S
C1357      C1358   1.413       .  A
C1357      C1362   1.395       .  A
C1357      H1364   1.082       .  S
C1358      C1359   1.412       .  A
C1359      C1360   1.398       .  A
C1359      F1366   1.355       .  S
C1360      C1361   1.400       .  A
C1360      H1365   1.083       .  S
C1361      C1362   1.397       .  A
C1362      F1363   1.358       .  S
C1367      C1368   1.402       .  A
C1367      C1372   1.392       .  A
C1367      H1374   1.084       .  S
C1368      C1369   1.397       .  A
C1369      C1370   1.395       .  A
C1369      F1376   1.357       .  S
C1370      C1371   1.410       .  A
C1370      H1375   1.083       .  S
C1371      C1372   1.406       .  A
C1372      F1373   1.358       .  S
C1377      C1378   1.408       .  A
C1377      C1382   1.402       .  A
C1377      H1384   1.083       .  S
C1378      C1379   1.413       .  A
C1379      C1380   1.402       .  A
C1379      F1386   1.357       .  S
C1380      C1381   1.404       .  A
C1380      H1385   1.083       .  S
C1381      C1382   1.407       .  A
C1382      F1383   1.357       .  S
C1387      C1392   1.400       .  A
C1387      H1394   1.083       .  S
C1388      C1389   1.410   1_655  A
C1389      C1390   1.402       .  A
C1389      F1396   1.357       .  S
C1390      C1391   1.407   1_455  A
C1390      H1395   1.082       .  S
C1392      F1393   1.357       .  S
C1397      C1398   1.399       .  A
C1397      C1402   1.391       .  A
C1397      H1404   1.083       .  S
C1398      C1399   1.401       .  A
C1399      C1400   1.389       .  A
C1399      F1406   1.357       .  S
C1400      C1401   1.405       .  A
C1400      H1405   1.083       .  S
C1401      C1402   1.410       .  A
C1402      F1403   1.358       .  S
C1407      C1408   1.405       .  A
C1407      C1412   1.394       .  A
C1407      H1414   1.083       .  S
C1408      C1409   1.404       .  A
C1409      C1410   1.390       .  A
C1409      F1416   1.358       .  S
C1410      C1411   1.409       .  A
C1410      H1415   1.080       .  S
C1411      C1412   1.410       .  A
C1412      F1413   1.357       .  S
C1417      C1418   1.404       .  A
C1417      C1422   1.394       .  A
C1417      H1424   1.083       .  S
C1418      C1419   1.406       .  A
C1419      C1420   1.392       .  A
C1419      F1426   1.358       .  S
C1420      C1421   1.408       .  A
C1420      H1425   1.079       .  S
C1421      C1422   1.411       .  A
C1422      F1423   1.357       .  S
C1427      C1428   1.407       .  A
C1427      C1432   1.391       .  A
C1427      H1434   1.083       .  S
C1428      C1429   1.410       .  A
C1429      C1430   1.391       .  A
C1429      F1436   1.358       .  S
C1430      C1431   1.399       .  A
C1430      H1435   1.083       .  S
C1431      C1432   1.399       .  A
C1432      F1433   1.357       .  S
C1437      C1438   1.405       .  A
C1437      C1442   1.395       .  A
C1437      H1444   1.083       .  S
C1438      C1439   1.413       .  A
C1439      C1440   1.390       .  A
C1439      F1446   1.358       .  S
C1440      C1441   1.397       .  A
C1440      H1445   1.083       .  S
C1441      C1442   1.404       .  A
C1442      F1443   1.357       .  S
C1447      C1448   1.407       .  A
C1447      C1452   1.397       .  A
C1447      H1454   1.084       .  S
C1448      C1449   1.403       .  A
C1449      C1450   1.391       .  A
C1449      F1456   1.358       .  S
C1450      C1451   1.411       .  A
C1450      H1455   1.080       .  S
C1451      C1452   1.410       .  A
C1452      F1453   1.357       .  S
C1457      C1458   1.400       .  A
C1457      C1462   1.394       .  A
C1457      H1464   1.083       .  S
C1458      C1459   1.410       .  A
C1459      C1460   1.393       .  A
C1459      F1466   1.358       .  S
C1460      C1461   1.404       .  A
C1460      H1465   1.077       .  S
C1461      C1462   1.414       .  A
C1462      F1463   1.357       .  S
C1467      C1468   1.402       .  A
C1467      C1472   1.392       .  A
C1467      H1474   1.083       .  S
C1468      C1469   1.406       .  A
C1469      C1470   1.391       .  A
C1469      F1476   1.356       .  S
C1470      C1471   1.405       .  A
C1470      H1475   1.083       .  S
C1471      C1472   1.408       .  A
C1472      F1473   1.358       .  S
C1477      C1482   1.400       .  A
C1477      H1484   1.083       .  S
C1479      C1480   1.397       .  A
C1479      F1486   1.357       .  S
C1480      H1485   1.083       .  S
C1482      F1483   1.357       .  S
C1487      C1488   1.406       .  A
C1487      C1492   1.399       .  A
C1487      H1494   1.083       .  S
C1488      C1489   1.408       .  A
C1489      C1490   1.396       .  A
C1489      F1496   1.358       .  S
C1490      C1491   1.405       .  A
C1490      H1495   1.082       .  S
C1491      C1492   1.407       .  A
C1492      F1493   1.356       .  S
C1497      C1498   1.409       .  A
C1497      C1502   1.396       .  A
C1497      H1504   1.081       .  S
C1498      C1499   1.410       .  A
C1499      C1500   1.400       .  A
C1499      F1506   1.353       .  S
C1500      C1501   1.403       .  A
C1500      H1505   1.083       .  S
C1501      C1502   1.405       .  A
C1502      F1503   1.358       .  S
C1507      C1508   1.402       .  A
C1507      C1512   1.402       .  A
C1507      H1514   1.083       .  S
C1508      C1509   1.404       .  A
C1509      C1510   1.394       .  A
C1509      F1516   1.358       .  S
C1510      C1511   1.407       .  A
C1510      H1515   1.080       .  S
C1511      C1512   1.411       .  A
C1512      F1513   1.354       .  S
C1517      C1518   1.404       .  A
C1517      C1522   1.394       .  A
C1517      H1524   1.083       .  S
C1518      C1519   1.412       .  A
C1519      C1520   1.404       .  A
C1519      F1526   1.357       .  S
C1520      C1521   1.406       .  A
C1520      H1525   1.083       .  S
C1521      C1522   1.412       .  A
C1522      F1523   1.356       .  S
C1527      C1528   1.405       .  A
C1527      C1532   1.399       .  A
C1527      H1534   1.082       .  S
C1528      C1529   1.413       .  A
C1529      C1530   1.397       .  A
C1529      F1536   1.356       .  S
C1530      C1531   1.404       .  A
C1530      H1535   1.083       .  S
C1531      C1532   1.410       .  A
C1532      F1533   1.357       .  S
