geometry optimzed in LAMMPS
_audit_creation_date              2020-11-30 
_audit_creation_method            'lammps2cif' 
_symmetry_space_group_name_H-M    'P1' 
_symmetry_Int_Tables_number       1 
_symmetry_cell_setting            triclinic 
loop_ 
_symmetry_equiv_pos_as_xyz 
  x,y,z 
_cell_length_a                    26.04189574 
_cell_length_b                    26.018863263221547 
_cell_length_c                    25.97265733953395 
_cell_angle_alpha                 90.02309285858625 
_cell_angle_beta                  90.121402808488 
_cell_angle_gamma                 89.93765533821256 
loop_ 
_atom_site_label 
_atom_site_type_symbol 
_atom_site_fract_x 
_atom_site_fract_y 
_atom_site_fract_z 
_atom_site_charge 
N1          N  0.99237610  0.49995855  0.57813786    -0.36100
N2          N  0.98349140  0.58051630  0.50023187    -0.56700
N3          N  0.98368775  0.50241270  0.42000517    -0.36100
N4          N  0.99841055  0.42205995  0.49769034    -0.56700
C5          C  0.99904115  0.54193219  0.60818129     0.27500
C6          C  0.00420580  0.45826018  0.60696213     0.27500
C7          C  0.98685589  0.54522340  0.39060051     0.27500
C8          C  0.99390618  0.46168197  0.38928103     0.27500
C9          C  0.97965275  0.61017092  0.54275965     0.36100
C10         C  0.97395833  0.61134180  0.45943868     0.36100
C11         C  0.99515358  0.39071984  0.53910267     0.36100
C12         C  0.99120473  0.39212434  0.45575217     0.36100
C13         C  0.01406570  0.52652219  0.65710974    -0.21400
C14         C  0.01725829  0.47382982  0.65634085    -0.21400
C15         C  0.99814979  0.53131095  0.34027072    -0.21400
C16         C  0.00265946  0.47869876  0.33947401    -0.21400
C17         C  0.96770813  0.66025994  0.52889791    -0.22400
C18         C  0.96409639  0.66099556  0.47613122    -0.22400
C19         C  0.98676732  0.34053234  0.52335546    -0.22400
C20         C  0.98422551  0.34141548  0.47057756    -0.22400
C21         C  0.99022449  0.59370190  0.59362604    -0.17800
C22         C  0.00121406  0.40633547  0.59093604    -0.17800
C23         C  0.99260349  0.40932391  0.40409286    -0.17800
C24         C  0.97836441  0.59643179  0.40723914    -0.17800
H25         H  0.02161533  0.55066039  0.69021044     0.15100
H26         H  0.02784689  0.44972701  0.68862793     0.15100
H27         H  0.00234129  0.55636525  0.30729321     0.15100
H28         H  0.01095300  0.45557486  0.30584503     0.15100
H29         H  0.96295490  0.69306617  0.55408902     0.13400
H30         H  0.95615253  0.69448121  0.45270149     0.13400
H31         H  0.98274154  0.30680526  0.54738450     0.13400
H32         H  0.97779637  0.30846324  0.44595118     0.13400
H33         H  0.97589867  0.49940092  0.54188188     0.26700
H34         H  0.97015318  0.50054064  0.45738444     0.26700
O35         O  0.99577727  0.14696187  0.08475650    -0.79600
O36         O  0.00608620  0.85457242  0.08365311    -0.81200
O37         O  0.91758130  0.99997506  0.14739097    -0.78200
O38         O  0.08773866  0.00181412  0.14548699    -0.76600
O39         O  0.14838864  0.00403104  0.08239790    -0.78400
O40         O  0.85564252  0.99792778  0.08527988    -0.79300
O41         O  0.00151323  0.91606678  0.14628713    -0.80600
O42         O  0.99868573  0.08473041  0.14690229    -0.80900
Eu43       Eu  0.00227124  0.00075662  0.10418709     2.39200
O44         O  0.05616395  0.95046527  0.05139301    -0.88400
O45         O  0.94811224  0.05171003  0.05235770    -0.92000
C46         C  0.99625789  0.13205018  0.13226534     1.02600
C47         C  0.00254793  0.86876261  0.13114173     1.02500
C48         C  0.87002691  0.99900028  0.13280991     1.02400
C49         C  0.13496116  0.00300570  0.13013812     1.00300
H50         H  0.93127496  0.92509875  0.07349704     0.30000
O51         O  0.95192806  0.94698675  0.05197073    -1.00800
H52         H  0.07273371  0.07685865  0.07260136     0.30100
O53         O  0.05186303  0.05486729  0.05118974    -1.03400
O54         O  0.00549984  0.85573173  0.91356186    -0.80600
O55         O  0.00034825  0.14733228  0.91403575    -0.80100
O56         O  0.85857040  0.91140459  0.00398827    -0.78600
O57         O  0.15173337  0.92230697  0.99677652    -0.81900
O58         O  0.14500038  0.09027619  0.99848216    -0.79800
O59         O  0.85112153  0.08035617  0.99858042    -0.78400
O60         O  0.91628821  0.99242950  0.85403722    -0.79900
O61         O  0.08333329  0.00324682  0.85141861    -0.81900
O62         O  0.85531243  0.98855956  0.91687581    -0.78600
O63         O  0.14638548  0.00623209  0.91254380    -0.81300
O64         O  0.92256387  0.85113795  0.99943899    -0.77000
O65         O  0.91081674  0.14483940  0.99637716    -0.77000
O66         O  0.08114564  0.15031768  0.99915629    -0.76700
O67         O  0.09192517  0.85789556  0.99639777    -0.80200
O68         O  0.00441280  0.91768659  0.85137961    -0.79600
O69         O  0.99969489  0.08474851  0.85215536    -0.77900
Eu70       Eu  0.00552906  0.89665735  0.99906013     2.39800
Eu71       Eu  0.99753492  0.10572135  0.99923938     2.39600
Eu72       Eu  0.89744630  0.99758624  0.00067285     2.38400
Eu73       Eu  0.10550031  0.00463274  0.99824571     2.39900
Eu74       Eu  0.00043951  0.00096225  0.89529525     2.39800
O75         O  0.05110053  0.05522431  0.94676095    -0.92300
O76         O  0.95087142  0.94723709  0.94800610    -0.91200
C77         C  0.00573962  0.87036426  0.86600221     1.02800
C78         C  0.00044341  0.13217131  0.86663617     1.01500
C79         C  0.87486809  0.86450055  0.00268332     1.00900
C80         C  0.13868422  0.87446769  0.99555250     1.02900
C81         C  0.12905401  0.13729922  0.99901250     1.01900
C82         C  0.86395084  0.12829828  0.99643051     1.00700
C83         C  0.86948808  0.98748632  0.86932236     1.00800
C84         C  0.13082068  0.00520585  0.86522586     1.03400
H85         H  0.92418614  0.07195793  0.92530275     0.30800
O86         O  0.94645364  0.05178078  0.94713057    -1.04500
H87         H  0.07708044  0.92999275  0.92461545     0.32800
O88         O  0.05518061  0.95048353  0.94641713    -1.07100
N89         N  0.50185280  0.00164585  0.58081102    -0.36100
N90         N  0.58089457  0.99443568  0.50169034    -0.56700
N91         N  0.50195785  0.99984718  0.42266761    -0.36100
N92         N  0.42285248  0.00185345  0.50152065    -0.56700
C93         C  0.54300565  0.98871960  0.60992196     0.27500
C94         C  0.45954195  0.99461012  0.61008037     0.27500
C95         C  0.54367450  0.99023165  0.39321893     0.27500
C96         C  0.45989284  0.99141285  0.39319929     0.27500
C97         C  0.61110218  0.00029201  0.54362037     0.36100
C98         C  0.61118568  0.00261935  0.46033418     0.36100
C99         C  0.39291845  0.01110909  0.54291467     0.36100
C100        C  0.39268452  0.00818639  0.45960798     0.36100
C101        C  0.52672894  0.97426249  0.65862412    -0.21400
C102        C  0.47407144  0.97816921  0.65878696    -0.21400
C103        C  0.52794156  0.97620255  0.34413980    -0.21400
C104        C  0.47509609  0.97676881  0.34418144    -0.21400
C105        C  0.66092960  0.01161977  0.52890767    -0.22400
C106        C  0.66098516  0.01315063  0.47610146    -0.22400
C107        C  0.34335495  0.02287668  0.52724584    -0.22400
C108        C  0.34319858  0.02097099  0.47446348    -0.22400
C109        C  0.59500419  0.99281375  0.59491244    -0.17800
C110        C  0.40831455  0.00434021  0.59464006    -0.17800
C111        C  0.40831492  0.99979501  0.40820952    -0.17800
C112        C  0.59543895  0.99705253  0.40853459    -0.17800
H113        H  0.55036720  0.96259411  0.69090853     0.15100
H114        H  0.44935267  0.96988909  0.69117880     0.15100
H115        H  0.55197372  0.96712373  0.31142992     0.15100
H116        H  0.45067275  0.96820241  0.31152118     0.15100
H117        H  0.69384328  0.01789153  0.55363344     0.13400
H118        H  0.69407160  0.02057836  0.45209632     0.13400
H119        H  0.31045943  0.03098923  0.55132993     0.13400
H120        H  0.31024066  0.02759943  0.44988085     0.13400
H121        H  0.50291165  0.01948950  0.54512733     0.26700
H122        H  0.50236753  0.01703313  0.45866048     0.26700
N123        N  0.50369689  0.58110765  0.99771868    -0.36100
N124        N  0.58054349  0.49951949  0.00077408    -0.56700
N125        N  0.49895171  0.42312355  0.99401551    -0.36100
N126        N  0.42199992  0.50438589  0.99835309    -0.56700
C127        C  0.54610005  0.60899900  0.00913465     0.27500
C128        C  0.46241043  0.61163246  0.00594312     0.27500
C129        C  0.53995173  0.39207234  0.00160292     0.27500
C130        C  0.45636674  0.39473339  0.00287199     0.27500
C131        C  0.61233448  0.54042572  0.99719483     0.36100
C132        C  0.60977058  0.45724699  0.99285377     0.36100
C133        C  0.39297425  0.54691772  0.99127530     0.36100
C134        C  0.39040810  0.46365516  0.99191245     0.36100
C135        C  0.53157928  0.65808585  0.02406031    -0.21400
C136        C  0.47882836  0.65975664  0.02204222    -0.21400
C137        C  0.52320802  0.34315570  0.01448399    -0.21400
C138        C  0.47052822  0.34486044  0.01539840    -0.21400
C139        C  0.66211815  0.52398256  0.98792820    -0.22400
C140        C  0.66046805  0.47132945  0.98508387    -0.22400
C141        C  0.34261716  0.53308285  0.98074091    -0.22400
C142        C  0.34094724  0.48035892  0.98145233    -0.22400
C143        C  0.59766109  0.59235818  0.00410868    -0.17800
C144        C  0.41037073  0.59807948  0.99754169    -0.17800
C145        C  0.40496320  0.41158223  0.99742030    -0.17800
C146        C  0.59209371  0.40590491  0.99554245    -0.17800
H147        H  0.55642287  0.68954208  0.03515667     0.15100
H148        H  0.45525038  0.69273463  0.03141255     0.15100
H149        H  0.54651140  0.30960219  0.02244079     0.15100
H150        H  0.44550459  0.31281346  0.02398448     0.15100
H151        H  0.69615019  0.54745237  0.98378672     0.13400
H152        H  0.69298251  0.44624747  0.97850688     0.13400
H153        H  0.31025305  0.55833581  0.97396516     0.13400
H154        H  0.30715373  0.45699849  0.97510224     0.13400
H155        H  0.50312386  0.54540091  0.98003491     0.26700
H156        H  0.49995677  0.45975203  0.97841894     0.26700
C157        C  0.80375795  0.74118226  0.97202708    -0.01500
C158        C  0.76049242  0.74464044  0.00463704     0.07100
C159        C  0.75646996  0.78647710  0.03844677    -0.07500
C160        C  0.79363243  0.82536282  0.03900276     0.04500
C161        C  0.83591786  0.82299300  0.00502665    -0.14700
C162        C  0.84094128  0.78015076  0.97250434    -0.08000
C163        C  0.71869979  0.70553247  0.00403547     0.05500
C164        C  0.70777320  0.67789020  0.04921780    -0.09200
C165        C  0.66827642  0.64125854  0.05019807     0.00500
C166        C  0.63891148  0.63199586  0.00548362     0.00300
C167        C  0.64907196  0.66022747  0.96070911    -0.12700
C168        C  0.68837666  0.69690983  0.95969442     0.00800
C169        C  0.65816459  0.61377736  0.09737236     0.40100
C170        C  0.69624787  0.72594496  0.91302129     0.36700
C171        C  0.81083721  0.69809412  0.93771503     0.36400
C172        C  0.78863016  0.86583631  0.07663163     0.37200
N173        N  0.64982635  0.59166573  0.13508885    -0.43600
N174        N  0.70311943  0.74909019  0.87563261    -0.44000
N175        N  0.78452838  0.89771466  0.10738756    -0.41400
N176        N  0.81612019  0.66382429  0.90980178    -0.42800
H177        H  0.87355478  0.77754097  0.94671375     0.13300
H178        H  0.72388463  0.78893914  0.06429049     0.09800
H179        H  0.73034126  0.68479304  0.08367178     0.10900
H180        H  0.62619067  0.65345266  0.92643791     0.16700
C181        C  0.73592786  0.19426446  0.02138606    -0.01500
C182        C  0.74032046  0.23955807  0.99192623     0.07100
C183        C  0.78475402  0.24744810  0.96263326    -0.07500
C184        C  0.82504282  0.21168295  0.96300776     0.04500
C185        C  0.82166551  0.16693261  0.99380158    -0.14700
C186        C  0.77645065  0.15859315  0.02222025    -0.08000
C187        C  0.70029967  0.28043710  0.99265224     0.05500
C188        C  0.69247770  0.30842744  0.03823355    -0.09200
C189        C  0.65815735  0.34991955  0.03952353     0.00500
C190        C  0.63061211  0.36359936  0.99484280     0.00300
C191        C  0.63771849  0.33526344  0.94946333    -0.12700
C192        C  0.67248969  0.29412151  0.94794634     0.00800
C193        C  0.65175187  0.37829188  0.08685489     0.40100
C194        C  0.67864670  0.26621094  0.90030760     0.36700
C195        C  0.68974068  0.18313560  0.04998112     0.36400
C196        C  0.86835609  0.22124581  0.92979847     0.37200
N197        N  0.64643424  0.40155023  0.12445595    -0.43600
N198        N  0.68359036  0.24395917  0.86204558    -0.44000
N199        N  0.90262491  0.22939531  0.90272505    -0.41400
N200        N  0.65251761  0.17419248  0.07252852    -0.42800
H201        H  0.77304189  0.12445547  0.04573645     0.13300
H202        H  0.78807678  0.28201188  0.93953487     0.09800
H203        H  0.71402635  0.29843593  0.07257984     0.10900
H204        H  0.61605695  0.34541548  0.91522553     0.16700
C205        C  0.26396457  0.80650446  0.02482701    -0.01500
C206        C  0.26084384  0.76280050  0.99290548     0.07100
C207        C  0.21778742  0.75611214  0.96123116    -0.07500
C208        C  0.17737721  0.79162188  0.96177703     0.04500
C209        C  0.18058018  0.83592703  0.99322764    -0.14700
C210        C  0.22458320  0.84325979  0.02381779    -0.08000
C211        C  0.30045978  0.72189730  0.99406888     0.05500
C212        C  0.30240885  0.68881164  0.03662588    -0.09200
C213        C  0.33758850  0.64814797  0.03832440     0.00500
C214        C  0.37165731  0.64025878  0.99689206     0.00300
C215        C  0.36987517  0.67354198  0.95440140    -0.12700
C216        C  0.33453896  0.71414545  0.95265901     0.00800
C217        C  0.33794372  0.61491526  0.08280013     0.40100
C218        C  0.33447361  0.74789925  0.90855174     0.36700
C219        C  0.30639742  0.81350747  0.05998910     0.36400
C220        C  0.13316270  0.78123694  0.92985260     0.37200
N221        N  0.33792266  0.58812141  0.11834770    -0.43600
N222        N  0.33456900  0.77504354  0.87326349    -0.44000
N223        N  0.09771522  0.77207231  0.90456261    -0.41400
N224        N  0.34009023  0.81866173  0.08864617    -0.42800
H225        H  0.22731566  0.87681876  0.04847264     0.13300
H226        H  0.21514343  0.72217791  0.93708209     0.09800
H227        H  0.27596901  0.69453222  0.06833519     0.10900
H228        H  0.39621485  0.66772445  0.92263051     0.16700
C229        C  0.26032056  0.20137167  0.99402216    -0.01500
C230        C  0.24845255  0.25347981  0.00261693     0.07100
C231        C  0.19707708  0.26790350  0.00950965    -0.07500
C232        C  0.15747087  0.23145314  0.00789318     0.04500
C233        C  0.16908577  0.17866267  0.99986761    -0.14700
C234        C  0.22102409  0.16466184  0.99302969    -0.08000
C235        C  0.28877364  0.29389947  0.00231795     0.05500
C236        C  0.31568828  0.30335630  0.95652728    -0.09200
C237        C  0.35321175  0.34174821  0.95417706     0.00500
C238        C  0.36393360  0.37180740  0.99804206     0.00300
C239        C  0.33715530  0.36246265  0.04389032    -0.12700
C240        C  0.29997352  0.32362654  0.04643766     0.00800
C241        C  0.38019198  0.34983653  0.90638651     0.40100
C242        C  0.27531049  0.31362279  0.09513800     0.36700
C243        C  0.31269204  0.18463170  0.98656209     0.36400
C244        C  0.10562487  0.25006564  0.01436137     0.37200
N245        N  0.40184003  0.35631728  0.86807812    -0.43600
N246        N  0.25585953  0.30545316  0.13430782    -0.44000
N247        N  0.06412739  0.26524966  0.01924800    -0.41400
N248        N  0.35469267  0.17146924  0.98036672    -0.42800
H249        H  0.23132524  0.12479917  0.98655852     0.13300
H250        H  0.18782506  0.30813848  0.01544514     0.09800
H251        H  0.30717577  0.28073777  0.92248223     0.10900
H252        H  0.34601945  0.38499726  0.07789993     0.16700
C253        C  0.69743918  0.93780130  0.68260643    -0.01500
C254        C  0.70932136  0.98044577  0.71422249     0.07100
C255        C  0.68375314  0.02733854  0.70570157    -0.07500
C256        C  0.64654538  0.03191792  0.66703226     0.04500
C257        C  0.63492067  0.98939008  0.63567061    -0.14700
C258        C  0.66062567  0.94271598  0.64353389    -0.08000
C259        C  0.74919725  0.97777449  0.75528426     0.05500
C260        C  0.79951102  0.96347200  0.74225060    -0.09200
C261        C  0.83893520  0.96405525  0.77900107     0.00500
C262        C  0.82868156  0.98121280  0.82974039     0.00300
C263        C  0.77782990  0.99349558  0.84306500    -0.12700
C264        C  0.73829403  0.99150680  0.80668089     0.00800
C265        C  0.88886932  0.94539533  0.76365565     0.40100
C266        C  0.68676037  0.00318158  0.82343242     0.36700
C267        C  0.72118871  0.88822553  0.69031684     0.36400
C268        C  0.62080754  0.08053070  0.65956287     0.37200
N269        N  0.92874005  0.93009204  0.75137528    -0.43600
N270        N  0.64560505  0.01250863  0.83733162    -0.44000
N271        N  0.59968899  0.11912352  0.65292282    -0.41400
N272        N  0.74000243  0.84832763  0.69614373    -0.42800
H273        H  0.65133713  0.90992720  0.61946867     0.13300
H274        H  0.69312367  0.06054150  0.72915121     0.09800
H275        H  0.80817926  0.95230882  0.70297805     0.10900
H276        H  0.76877778  0.00557531  0.88197570     0.16700
C277        C  0.25730465  0.98190235  0.79727647    -0.01500
C278        C  0.24766820  0.00166093  0.74774023     0.07100
C279        C  0.19921631  0.02208989  0.73623115    -0.07500
C280        C  0.16047245  0.02365628  0.77351501     0.04500
C281        C  0.17034047  0.00497369  0.82393568    -0.14700
C282        C  0.21904932  0.98421868  0.83495784    -0.08000
C283        C  0.28834134  0.00294176  0.70799965     0.05500
C284        C  0.30435040  0.95682819  0.68511274    -0.09200
C285        C  0.34342208  0.95670600  0.64822748     0.00500
C286        C  0.36752931  0.00317993  0.63447213     0.00300
C287        C  0.35147421  0.04934868  0.65721709    -0.12700
C288        C  0.31173768  0.04958357  0.69345775     0.00800
C289        C  0.35807921  0.90866867  0.62459569     0.40100
C290        C  0.29543509  0.09790827  0.71540816     0.36700
C291        C  0.30629489  0.95930026  0.81032721     0.36400
C292        C  0.11160432  0.04563430  0.75884276     0.37200
N293        N  0.36989872  0.87028577  0.60544862    -0.43600
N294        N  0.28169776  0.13638078  0.73304119    -0.44000
N295        N  0.07241447  0.06290538  0.74674925    -0.41400
N296        N  0.34545415  0.94085298  0.82057890    -0.42800
H297        H  0.22714083  0.96894518  0.87296666     0.13300
H298        H  0.19180647  0.03710790  0.69795867     0.09800
H299        H  0.28608980  0.92100030  0.69596005     0.10900
H300        H  0.36962949  0.08516544  0.64616424     0.16700
C301        C  0.32083777  0.04802362  0.30221280    -0.01500
C302        C  0.29202076  0.00370772  0.29015625     0.07100
C303        C  0.30142045  0.95796953  0.31727108    -0.07500
C304        C  0.33893100  0.95597882  0.35597318     0.04500
C305        C  0.36818913  0.00009792  0.36739222    -0.14700
C306        C  0.35888057  0.04577494  0.34033768    -0.08000
C307        C  0.25171333  0.00427765  0.24961522     0.05500
C308        C  0.26632229  0.00765211  0.19789402    -0.09200
C309        C  0.22962873  0.00684580  0.15829936     0.00500
C310        C  0.17640597  0.00339219  0.17032977     0.00300
C311        C  0.16230999  0.00024353  0.22264891    -0.12700
C312        C  0.19927520  0.00031992  0.26191784     0.00800
C313        C  0.24853285  0.00904455  0.10607748     0.40100
C314        C  0.18253207  0.99670062  0.31474846     0.36700
C315        C  0.31062091  0.09667344  0.27754772     0.36400
C316        C  0.34664033  0.90854280  0.38373853     0.37200
N317        N  0.26389597  0.01057031  0.06431406    -0.43600
N318        N  0.16930941  0.99363048  0.35714102    -0.44000
N319        N  0.35272279  0.87060727  0.40619202    -0.41400
N320        N  0.30231035  0.13591829  0.25829273    -0.42800
H321        H  0.38092909  0.07989229  0.34964353     0.13300
H322        H  0.27920674  0.92387938  0.30827391     0.09800
H323        H  0.30679984  0.01024525  0.18842203     0.10900
H324        H  0.12218168  0.99743249  0.23327685     0.16700
C325        C  0.80639398  0.98491532  0.26412104    -0.01500
C326        C  0.75445114  0.99516308  0.25296689     0.07100
C327        C  0.74022830  0.00734510  0.20247439    -0.07500
C328        C  0.77664807  0.00905330  0.16287524     0.04500
C329        C  0.82924060  0.99843963  0.17352502    -0.14700
C330        C  0.84308213  0.98635212  0.22464543    -0.08000
C331        C  0.71424067  0.99477423  0.29343313     0.05500
C332        C  0.69384825  0.04179773  0.31028325    -0.09200
C333        C  0.65515851  0.04324194  0.34764630     0.00500
C334        C  0.63581922  0.99701010  0.36813350     0.00300
C335        C  0.65604650  0.94997841  0.35127301    -0.12700
C336        C  0.69505338  0.94851332  0.31422265     0.00800
C337        C  0.63646261  0.09245297  0.36522509     0.40100
C338        C  0.71435206  0.89916012  0.29781095     0.36700
C339        C  0.82304964  0.97407477  0.31604664     0.36400
C340        C  0.75802558  0.02143644  0.11196220     0.37200
N341        N  0.62167058  0.13183762  0.37969472    -0.43600
N342        N  0.72967721  0.85941140  0.28499536    -0.44000
N343        N  0.74238385  0.03062751  0.07125560    -0.41400
N344        N  0.83639145  0.96560818  0.35771951    -0.42800
H345        H  0.88274765  0.97775338  0.23403144     0.13300
H346        H  0.70021632  0.01545037  0.19395349     0.09800
H347        H  0.70851921  0.07742488  0.29444034     0.10900
H348        H  0.64132505  0.91442177  0.36723334     0.16700
C349        C  0.03349301  0.25587460  0.79734079    -0.01500
C350        C  0.00459389  0.25153176  0.75147542     0.07100
C351        C  0.97566849  0.20690006  0.74286603    -0.07500
C352        C  0.97422001  0.16733278  0.77934009     0.04500
C353        C  0.00189466  0.17222370  0.82601111    -0.14700
C354        C  0.03153689  0.21660556  0.83424184    -0.08000
C355        C  0.00385137  0.29260132  0.71162543     0.05500
C356        C  0.04902409  0.30376435  0.68438228    -0.10500
C357        C  0.04889150  0.33994536  0.64434900     0.00500
C358        C  0.00311944  0.36608089  0.63161878     0.00300
C359        C  0.95814061  0.35523751  0.65896726    -0.12700
C360        C  0.95797345  0.31853206  0.69831995     0.00800
C361        C  0.09593122  0.34946249  0.61670590     0.40100
C362        C  0.91008571  0.30815482  0.72418942     0.36700
C363        C  0.06469442  0.30047152  0.80801626     0.36400
C364        C  0.94255540  0.12309524  0.76841794     0.37200
N365        N  0.13370266  0.35679370  0.59451150    -0.43600
N366        N  0.87129914  0.29994203  0.74421226    -0.44000
N367        N  0.91720988  0.08768664  0.75942651    -0.41400
N368        N  0.09002928  0.33587322  0.81706298    -0.42800
H369        H  0.05355312  0.22049691  0.86953971     0.13300
H370        H  0.95391326  0.20308592  0.70740519     0.09800
H371        H  0.08418997  0.28343604  0.69379344     0.10900
H372        H  0.92296360  0.37541841  0.64923831     0.16700
C373        C  0.99103123  0.73966880  0.80352230    -0.01500
C374        C  0.00800851  0.74853649  0.75283179     0.07100
C375        C  0.02573169  0.79760148  0.73936980    -0.07500
C376        C  0.02585455  0.83791662  0.77520766     0.04500
C377        C  0.00724309  0.82949531  0.82583995    -0.14700
C378        C  0.99018432  0.77995872  0.83910892    -0.08000
C379        C  0.00466143  0.70802511  0.71259538     0.05500
C380        C  0.95634879  0.68704851  0.70080352    -0.09200
C381        C  0.95107802  0.64942117  0.66268915     0.00500
C382        C  0.99431258  0.63357511  0.63439414     0.00300
C383        C  0.04266718  0.65426115  0.64608463    -0.12700
C384        C  0.04829302  0.69066217  0.68544449     0.00800
C385        C  0.90129702  0.62673279  0.65382705     0.40100
C386        C  0.09935699  0.70745173  0.69911708     0.36700
C387        C  0.97594751  0.68908093  0.82052052     0.36400
C388        C  0.04588908  0.88692898  0.75861591     0.37200
N389        N  0.86156834  0.60806601  0.64690381    -0.43600
N390        N  0.14040711  0.72029083  0.71038246    -0.44000
N391        N  0.06175364  0.92605218  0.74468823    -0.41400
N392        N  0.96427523  0.64848674  0.83436946    -0.42800
H393        H  0.97613419  0.77239960  0.87764614     0.13300
H394        H  0.03893860  0.80457806  0.70040621     0.09800
H395        H  0.92269061  0.69996747  0.72167468     0.10900
H396        H  0.07615068  0.64100190  0.62514068     0.16700
C397        C  0.03145524  0.69345551  0.31346426    -0.01500
C398        C  0.98660621  0.71252782  0.28963546     0.07100
C399        C  0.93859442  0.69283824  0.30413436    -0.07500
C400        C  0.93486330  0.65528202  0.34265286     0.04500
C401        C  0.97968304  0.63755938  0.36754204    -0.14700
C402        C  0.02760702  0.65688512  0.35265412    -0.08000
C403        C  0.98934628  0.75307710  0.24962368     0.05500
C404        C  0.97576283  0.74111850  0.19885055    -0.09200
C405        C  0.97898624  0.77814732  0.15985975     0.00500
C406        C  0.99810906  0.82799551  0.17115733     0.00300
C407        C  0.01049032  0.83996931  0.22257703    -0.12700
C408        C  0.00521669  0.80339257  0.26172606     0.00800
C409        C  0.95913100  0.76460685  0.10967408     0.40100
C410        C  0.01355817  0.81890650  0.31447412     0.36700
C411        C  0.08189307  0.70900405  0.29661634     0.36400
C412        C  0.88496040  0.63506174  0.35559781     0.37200
N413        N  0.94260620  0.75391286  0.06968277    -0.43600
N414        N  0.01933038  0.83121007  0.35691248    -0.44000
N415        N  0.84486184  0.61886024  0.36570172    -0.41400
N416        N  0.12236758  0.72095431  0.28279204    -0.42800
H417        H  0.06216822  0.64227486  0.37089596     0.13300
H418        H  0.90409213  0.70690175  0.28536702     0.09800
H419        H  0.96196679  0.70282628  0.18981625     0.10900
H420        H  0.02359343  0.87825905  0.23252634     0.16700
C421        C  0.03805161  0.30305037  0.31556162    -0.01500
C422        C  0.99318257  0.29221952  0.28714979     0.07100
C423        C  0.94825145  0.32039510  0.29662967    -0.07500
C424        C  0.94767948  0.35923228  0.33398284     0.04500
C425        C  0.99246169  0.36979085  0.36271448    -0.14700
C426        C  0.03742521  0.34167203  0.35308141    -0.08000
C427        C  0.99288046  0.25189045  0.24693903     0.05500
C428        C  0.97046554  0.20425346  0.25777205    -0.09200
C429        C  0.97133006  0.16445113  0.22143051     0.00500
C430        C  0.99454687  0.17244780  0.17271684     0.00300
C431        C  0.01669584  0.22059080  0.16215039    -0.12700
C432        C  0.01619658  0.26001190  0.19880760     0.00800
C433        C  0.94709627  0.11650807  0.23517866     0.40100
C434        C  0.03980252  0.30863674  0.18645803     0.36700
C435        C  0.08475279  0.27431691  0.30712107     0.36400
C436        C  0.90083805  0.38766381  0.34261877     0.37200
N437        N  0.92771585  0.07826979  0.24686896    -0.43600
N438        N  0.05869307  0.34775878  0.17711197    -0.44000
N439        N  0.86353995  0.41080830  0.34968844    -0.41400
N440        N  0.12187154  0.25094086  0.29987766    -0.42800
H441        H  0.07186703  0.34975571  0.37517143     0.13300
H442        H  0.91377505  0.31217420  0.27463777     0.09800
H443        H  0.95267624  0.19805340  0.29499049     0.10900
H444        H  0.03509479  0.22732358  0.12535473     0.16700
loop_ 
_geom_bond_atom_site_label_1 
_geom_bond_atom_site_label_2 
_geom_bond_distance 
_geom_bond_site_symmetry_2 
_ccdc_geom_bond_type 
N1            C6   1.353   1_655  A
N1            C5   1.353       .  A
N1           H33   1.034       .  S
N2            C9   1.351       .  A
N2           C10   1.352       .  A
N3            C8   1.353       .  A
N3            C7   1.354       .  A
N3           H34   1.035       .  S
N4           C11   1.353       .  A
N4           C12   1.352       .  A
C5           C13   1.388   1_655  A
C5           C21   1.418       .  A
C6           C22   1.416       .  A
C6           C14   1.387       .  A
C7           C15   1.388       .  A
C7           C24   1.418       .  A
C8           C23   1.416       .  A
C8           C16   1.387   1_655  A
C9           C21   1.415       .  A
C9           C17   1.387       .  A
C10          C24   1.415       .  A
C10          C18   1.386       .  A
C11          C19   1.386       .  A
C11          C22   1.415   1_655  A
C12          C20   1.387       .  A
C12          C23   1.415       .  A
C13          C14   1.374       .  A
C13          H25   1.082       .  S
C14          H26   1.082       .  S
C15          C16   1.374   1_655  A
C15          H27   1.082   1_655  S
C16          H28   1.082       .  S
C17          C18   1.374       .  A
C17          H29   1.082       .  S
C18          H30   1.082       .  S
C19          C20   1.372       .  A
C19          H31   1.082       .  S
C20          H32   1.082       .  S
C21         C382   1.486       .  S
C22         C358   1.489       .  S
C23         C425   1.487       .  S
C24         C401   1.487       .  S
O35          C46   1.294       .  A
O35         Eu71   2.467   1_554  S
O36          C47   1.291       .  A
O36         Eu70   2.455   1_554  S
O37          C48   1.295       .  A
O37         Eu43   2.477   1_665  S
O38          C49   1.294       .  A
O38         Eu43   2.469       .  S
O39          C49   1.289       .  A
O39         Eu73   2.452   1_554  S
O40          C48   1.290       .  A
O40         Eu72   2.454       .  S
O41          C47   1.292       .  A
O41         Eu43   2.460   1_565  S
O42          C46   1.290       .  A
O42         Eu43   2.452   1_655  S
Eu43         O53   2.358       .  S
Eu43         O45   2.355   1_455  S
Eu43         O44   2.359   1_545  S
Eu43         O51   2.347   1_445  S
O44         Eu73   2.357   1_564  S
O44         Eu70   2.354   1_554  S
O45         Eu71   2.355   1_554  S
O45         Eu72   2.350   1_545  S
C46         C430   1.487       .  S
C47         C406   1.490   1_455  S
C48         C329   1.500       .  S
C49         C310   1.500       .  S
H50          O51   0.964       .  S
O51         Eu72   2.348       .  S
O51         Eu70   2.357   1_654  S
H52          O53   0.965       .  S
O53         Eu71   2.358   1_454  S
O53         Eu73   2.356   1_554  S
O54          C77   1.293       .  A
O54         Eu70   2.462       .  S
O55          C78   1.293       .  A
O55         Eu71   2.465   1_455  S
O56          C79   1.292       .  A
O56         Eu72   2.463       .  S
O57          C80   1.291       .  A
O57         Eu73   2.456   1_565  S
O58          C81   1.292       .  A
O58         Eu73   2.455       .  S
O59          C82   1.293       .  A
O59         Eu72   2.468   1_546  S
O60          C83   1.289       .  A
O60         Eu74   2.448   1_665  S
O61          C84   1.288       .  A
O61         Eu74   2.444       .  S
O62          C83   1.290       .  A
O62         Eu72   2.447   1_556  S
O63          C84   1.294       .  A
O63         Eu73   2.470       .  S
O64          C79   1.292   1_556  A
O64         Eu70   2.465   1_655  S
O65          C82   1.295       .  A
O65         Eu71   2.477       .  S
O66          C81   1.292       .  A
O66         Eu71   2.468   1_455  S
O67          C80   1.292       .  A
O67         Eu70   2.466       .  S
O68          C77   1.289       .  A
O68         Eu74   2.450   1_565  S
O69          C78   1.290   1_655  A
O69         Eu74   2.452   1_655  S
Eu70         O88   2.349       .  S
Eu70         O76   2.346   1_455  S
Eu71         O75   2.352   1_655  S
Eu71         O86   2.359       .  S
Eu72         O86   2.359   1_564  S
Eu72         O76   2.351   1_554  S
Eu73         O75   2.349       .  S
Eu73         O88   2.347   1_545  S
Eu74         O75   2.349       .  S
Eu74         O86   2.354   1_455  S
Eu74         O88   2.347   1_545  S
Eu74         O76   2.347   1_445  S
C77         C377   1.490       .  S
C78         C353   1.484       .  S
C79         C161   1.484       .  S
C80         C209   1.482       .  S
C81         C233   1.499       .  S
C82         C185   1.492       .  S
C83         C262   1.486       .  S
C84         C281   1.488       .  S
H85          O86   0.965       .  S
H87          O88   0.965       .  S
N89          C94   1.353   1_545  A
N89          C93   1.353   1_545  A
N89         H121   1.037       .  S
N90          C97   1.351   1_565  A
N90          C98   1.351   1_565  A
N91          C96   1.353       .  A
N91          C95   1.353       .  A
N91         H122   1.036   1_565  S
N92          C99   1.351       .  A
N92         C100   1.351       .  A
C93         C101   1.387       .  A
C93         C109   1.414       .  A
C94         C110   1.415   1_565  A
C94         C102   1.387       .  A
C95         C103   1.387       .  A
C95         C112   1.416       .  A
C96         C111   1.416       .  A
C96         C104   1.387       .  A
C97         C109   1.411   1_545  A
C97         C105   1.386       .  A
C98         C112   1.413   1_545  A
C98         C106   1.387       .  A
C99         C107   1.386       .  A
C99         C110   1.412       .  A
C100        C108   1.386       .  A
C100        C111   1.413   1_545  A
C101        C102   1.375       .  A
C101        H113   1.083       .  S
C102        H114   1.082       .  S
C103        C104   1.376       .  A
C103        H115   1.082       .  S
C104        H116   1.082       .  S
C105        C106   1.372       .  A
C105        H117   1.082       .  S
C106        H118   1.082       .  S
C107        C108   1.372       .  A
C107        H119   1.082       .  S
C108        H120   1.082       .  S
C109        C257   1.485       .  S
C110        C286   1.485       .  S
C111        C305   1.487   1_565  S
C112        C334   1.487       .  S
N123        C128   1.353   1_556  A
N123        C127   1.354   1_556  A
N123        H155   1.036       .  S
N124        C131   1.352   1_554  A
N124        C132   1.353   1_554  A
N125        C130   1.353   1_556  A
N125        C129   1.352   1_556  A
N125        H156   1.036       .  S
N126        C133   1.352       .  A
N126        C134   1.352       .  A
C127        C135   1.387       .  A
C127        C143   1.417       .  A
C128        C144   1.417   1_554  A
C128        C136   1.388       .  A
C129        C137   1.387       .  A
C129        C146   1.414   1_554  A
C130        C145   1.415   1_554  A
C130        C138   1.387       .  A
C131        C143   1.415   1_556  A
C131        C139   1.386       .  A
C132        C146   1.415       .  A
C132        C140   1.386       .  A
C133        C141   1.387       .  A
C133        C144   1.416       .  A
C134        C142   1.385       .  A
C134        C145   1.414       .  A
C135        C136   1.375       .  A
C135        H147   1.082       .  S
C136        H148   1.083       .  S
C137        C138   1.373       .  A
C137        H149   1.082       .  S
C138        H150   1.082       .  S
C139        C140   1.373       .  A
C139        H151   1.082       .  S
C140        H152   1.082       .  S
C141        C142   1.373       .  A
C141        H153   1.082       .  S
C142        H154   1.082       .  S
C143        C166   1.490       .  S
C144        C214   1.490       .  S
C145        C238   1.488       .  S
C146        C190   1.489       .  S
C157        C158   1.414   1_556  A
C157        C162   1.403       .  A
C157        C171   1.444       .  S
C158        C159   1.402       .  A
C158        C163   1.491       .  S
C159        C160   1.401       .  A
C159        H178   1.085       .  S
C160        C161   1.414       .  A
C160        C172   1.442       .  S
C161        C162   1.404   1_554  A
C162        H177   1.085       .  S
C163        C164   1.406       .  A
C163        C168   1.413   1_554  A
C164        C165   1.403       .  A
C164        H179   1.085       .  S
C165        C166   1.410       .  A
C165        C169   1.444       .  S
C166        C167   1.402   1_554  A
C167        C168   1.401       .  A
C167        H180   1.085       .  S
C168        C170   1.444       .  S
C169        N173   1.157       .  T
C170        N174   1.157       .  T
C171        N176   1.157       .  T
C172        N175   1.156       .  T
C181        C182   1.410   1_554  A
C181        C186   1.405       .  A
C181        C195   1.445       .  S
C182        C183   1.402       .  A
C182        C187   1.488       .  S
C183        C184   1.402       .  A
C183        H202   1.085       .  S
C184        C185   1.416       .  A
C184        C196   1.443       .  S
C185        C186   1.408   1_556  A
C186        H201   1.082       .  S
C187        C188   1.405   1_556  A
C187        C192   1.413       .  A
C188        C189   1.401       .  A
C188        H203   1.084       .  S
C189        C190   1.409   1_554  A
C189        C193   1.444       .  S
C190        C191   1.402       .  A
C191        C192   1.402       .  A
C191        H204   1.085       .  S
C192        C194   1.444       .  S
C193        N197   1.157       .  T
C194        N198   1.157       .  T
C195        N200   1.157       .  T
C196        N199   1.157       .  T
C205        C206   1.409   1_554  A
C205        C210   1.402       .  A
C205        C219   1.444       .  S
C206        C207   1.400       .  A
C206        C211   1.482       .  S
C207        C208   1.400       .  A
C207        H226   1.085       .  S
C208        C209   1.415       .  A
C208        C220   1.443       .  S
C209        C210   1.406   1_556  A
C210        H225   1.085       .  S
C211        C212   1.402   1_556  A
C211        C216   1.410       .  A
C212        C213   1.399       .  A
C212        H227   1.085       .  S
C213        C214   1.411   1_554  A
C213        C217   1.443       .  S
C214        C215   1.404       .  A
C215        C216   1.401       .  A
C215        H228   1.085       .  S
C216        C218   1.444       .  S
C217        N221   1.157       .  T
C218        N222   1.157       .  T
C219        N224   1.157       .  T
C220        N223   1.157       .  T
C229        C230   1.408   1_556  A
C229        C234   1.401       .  A
C229        C243   1.445       .  S
C230        C231   1.401       .  A
C230        C235   1.487       .  S
C231        C232   1.402       .  A
C231        H250   1.085       .  S
C232        C233   1.422   1_554  A
C232        C244   1.444       .  S
C233        C234   1.412       .  A
C234        H249   1.084       .  S
C235        C236   1.404   1_554  A
C235        C240   1.412       .  A
C236        C237   1.400       .  A
C236        H251   1.085       .  S
C237        C238   1.409       .  A
C237        C241   1.443       .  S
C238        C239   1.403   1_556  A
C239        C240   1.402       .  A
C239        H252   1.085       .  S
C240        C242   1.444       .  S
C241        N245   1.157       .  T
C242        N246   1.157       .  T
C243        N248   1.157       .  T
C244        N247   1.157       .  T
C253        C254   1.414       .  A
C253        C258   1.400       .  A
C253        C267   1.444       .  S
C254        C255   1.407   1_565  A
C254        C259   1.489       .  S
C255        C256   1.399       .  A
C255        H274   1.085       .  S
C256        C257   1.407   1_545  A
C256        C268   1.444       .  S
C257        C258   1.401       .  A
C258        H273   1.085       .  S
C259        C260   1.404       .  A
C259        C264   1.411       .  A
C260        C261   1.400       .  A
C260        H275   1.085       .  S
C261        C262   1.417       .  A
C261        C265   1.444       .  S
C262        C263   1.406       .  A
C263        C264   1.397       .  A
C263        H276   1.085   1_565  S
C264        C266   1.444   1_565  S
C265        N269   1.157       .  T
C266        N270   1.157       .  T
C267        N272   1.157       .  T
C268        N271   1.157       .  T
C277        C278   1.408   1_565  A
C277        C282   1.399       .  A
C277        C291   1.444       .  S
C278        C279   1.400       .  A
C278        C283   1.481       .  S
C279        C280   1.401       .  A
C279        H298   1.085       .  S
C280        C281   1.420       .  A
C280        C292   1.445       .  S
C281        C282   1.407   1_545  A
C282        H297   1.084       .  S
C283        C284   1.402   1_545  A
C283        C288   1.411       .  A
C284        C285   1.399       .  A
C284        H299   1.085       .  S
C285        C286   1.410   1_565  A
C285        C289   1.444       .  S
C286        C287   1.402       .  A
C287        C288   1.400       .  A
C287        H300   1.085       .  S
C288        C290   1.444       .  S
C289        N293   1.157       .  T
C290        N294   1.157       .  T
C291        N296   1.157       .  T
C292        N295   1.158       .  T
C301        C302   1.411       .  A
C301        C306   1.400       .  A
C301        C315   1.443       .  S
C302        C303   1.404   1_545  A
C302        C307   1.485       .  S
C303        C304   1.401       .  A
C303        H322   1.085       .  S
C304        C305   1.410   1_565  A
C304        C316   1.443       .  S
C305        C306   1.402       .  A
C306        H321   1.085       .  S
C307        C308   1.400       .  A
C307        C312   1.407       .  A
C308        C309   1.402       .  A
C308        H323   1.085       .  S
C309        C310   1.424       .  A
C309        C313   1.445       .  S
C310        C311   1.411       .  A
C311        C312   1.401       .  A
C311        H324   1.084   1_545  S
C312        C314   1.444   1_545  S
C313        N317   1.158       .  T
C314        N318   1.157       .  T
C315        N320   1.157       .  T
C316        N319   1.157       .  T
C325        C326   1.408       .  A
C325        C330   1.403       .  A
C325        C339   1.444       .  S
C326        C327   1.398   1_565  A
C326        C331   1.485       .  S
C327        C328   1.401       .  A
C327        H346   1.085       .  S
C328        C329   1.423   1_545  A
C328        C340   1.444       .  S
C329        C330   1.411       .  A
C330        H345   1.084       .  S
C331        C332   1.403   1_565  A
C331        C336   1.412       .  A
C332        C333   1.401       .  A
C332        H347   1.085       .  S
C333        C334   1.410   1_545  A
C333        C337   1.444       .  S
C334        C335   1.402       .  A
C335        C336   1.401       .  A
C335        H348   1.085       .  S
C336        C338   1.443       .  S
C337        N341   1.157       .  T
C338        N342   1.157       .  T
C339        N344   1.157       .  T
C340        N343   1.157       .  T
C349        C350   1.412       .  A
C349        C354   1.402       .  A
C349        C363   1.444       .  S
C350        C351   1.402   1_455  A
C350        C355   1.488       .  S
C351        C352   1.400       .  A
C351        H370   1.085       .  S
C352        C353   1.415   1_655  A
C352        C364   1.444       .  S
C353        C354   1.406       .  A
C354        H369   1.085       .  S
C355        C356   1.405       .  A
C355        C360   1.414   1_455  A
C356        C357   1.403       .  A
C356        H371   1.085       .  S
C357        C358   1.410       .  A
C357        C361   1.443       .  S
C358        C359   1.400   1_455  A
C359        C360   1.399       .  A
C359        H372   1.085       .  S
C360        C362   1.444       .  S
C361        N365   1.157       .  T
C362        N366   1.157       .  T
C363        N368   1.157       .  T
C364        N367   1.157       .  T
C373        C374   1.409   1_655  A
C373        C378   1.397       .  A
C373        C387   1.444       .  S
C374        C375   1.403       .  A
C374        C379   1.487       .  S
C375        C376   1.402       .  A
C375        H394   1.085       .  S
C376        C377   1.420       .  A
C376        C388   1.445       .  S
C377        C378   1.407   1_455  A
C378        H393   1.085       .  S
C379        C380   1.405   1_455  A
C379        C384   1.412       .  A
C380        C381   1.399       .  A
C380        H395   1.085       .  S
C381        C382   1.407       .  A
C381        C385   1.443       .  S
C382        C383   1.403   1_655  A
C383        C384   1.401       .  A
C383        H396   1.085       .  S
C384        C386   1.444       .  S
C385        N389   1.157       .  T
C386        N390   1.157       .  T
C387        N392   1.157       .  T
C388        N391   1.157       .  T
C397        C398   1.410   1_455  A
C397        C402   1.397       .  A
C397        C411   1.444       .  S
C398        C399   1.404       .  A
C398        C403   1.483       .  S
C399        C400   1.402       .  A
C399        H418   1.085       .  S
C400        C401   1.410       .  A
C400        C412   1.443       .  S
C401        C402   1.401   1_655  A
C402        H417   1.085       .  S
C403        C404   1.400       .  A
C403        C408   1.408   1_655  A
C404        C405   1.401       .  A
C404        H419   1.085       .  S
C405        C406   1.420       .  A
C405        C409   1.445       .  S
C406        C407   1.408   1_655  A
C407        C408   1.400       .  A
C407        H420   1.084       .  S
C408        C410   1.444       .  S
C409        N413   1.157       .  T
C410        N414   1.157       .  T
C411        N416   1.157       .  T
C412        N415   1.157       .  T
C421        C422   1.409   1_455  A
C421        C426   1.400       .  A
C421        C435   1.444       .  S
C422        C423   1.402       .  A
C422        C427   1.480       .  S
C423        C424   1.401       .  A
C423        H442   1.085       .  S
C424        C425   1.410       .  A
C424        C436   1.444       .  S
C425        C426   1.403   1_655  A
C426        H441   1.084       .  S
C427        C428   1.400       .  A
C427        C432   1.407   1_655  A
C428        C429   1.401       .  A
C428        H443   1.085       .  S
C429        C430   1.419       .  A
C429        C433   1.444       .  S
C430        C431   1.407   1_655  A
C431        C432   1.399       .  A
C431        H444   1.084       .  S
C432        C434   1.444       .  S
C433        N437   1.157       .  T
C434        N438   1.157       .  T
C435        N440   1.157       .  T
C436        N439   1.157       .  T
