geometry optimzed in LAMMPS
_audit_creation_date              2020-11-30 
_audit_creation_method            'lammps2cif' 
_symmetry_space_group_name_H-M    'P1' 
_symmetry_Int_Tables_number       1 
_symmetry_cell_setting            triclinic 
loop_ 
_symmetry_equiv_pos_as_xyz 
  x,y,z 
_cell_length_a                    43.95899991 
_cell_length_b                    43.914708590051596 
_cell_length_c                    24.073895728413095 
_cell_angle_alpha                 90.02968704759023 
_cell_angle_beta                  89.93953152140759 
_cell_angle_gamma                 90.00008783280137 
loop_ 
_atom_site_label 
_atom_site_type_symbol 
_atom_site_fract_x 
_atom_site_fract_y 
_atom_site_fract_z 
_atom_site_charge 
In1        In  0.19088574  0.99837638  0.99800196     1.36900
C2          C  0.21394281  0.01680973  0.90046046     0.79300
O3          O  0.19178264  0.95155008  0.96089245    -0.59200
O4          O  0.14869964  0.97196358  0.97781502    -0.50100
C5          C  0.21375129  0.97984581  0.09554810     0.71900
O6          O  0.22832308  0.99780600  0.06419003    -0.44900
C7          C  0.16288918  0.04752557  0.03587377     0.76600
O8          O  0.22842807  0.99883317  0.93186248    -0.56800
O9          O  0.14854871  0.02471265  0.01758435    -0.46900
O10         O  0.18904619  0.02591022  0.92010364    -0.53200
C11         C  0.16318603  0.94922936  0.95952937     0.86800
O12         O  0.18878849  0.97092592  0.07598718    -0.55100
O13         O  0.19150076  0.04524385  0.03499672    -0.58400
In14       In  0.24266949  0.94581371  0.24759093     1.36900
C15         C  0.26103355  0.96843485  0.34545662     0.79300
O16         O  0.19573640  0.94668836  0.28420547    -0.59200
O17         O  0.21616076  0.90358206  0.26725918    -0.50100
C18         C  0.22434360  0.96907500  0.15022789     0.71900
O19         O  0.24226726  0.98351985  0.18180740    -0.44900
C20         C  0.29184668  0.91802371  0.20926516     0.76600
O21         O  0.24337833  0.98324229  0.31395499    -0.55200
O22         O  0.26902595  0.90355603  0.22716448    -0.46900
O23         O  0.26977515  0.94338010  0.32585512    -0.53200
C24         C  0.19337960  0.91805782  0.28533372     0.86800
O25         O  0.21532588  0.94405375  0.16951984    -0.55100
O26         O  0.28957540  0.94665353  0.21083206    -0.58400
In27       In  0.24276733  0.05001253  0.74759380     1.36900
C28         C  0.22450442  0.02731244  0.84554299     0.79300
O29         O  0.28964916  0.04925814  0.78421204    -0.59200
O30         O  0.26921498  0.09232187  0.76716947    -0.50100
C31         C  0.26115667  0.02664064  0.65016433     0.71900
O32         O  0.24327829  0.01220430  0.68188362    -0.44900
C33         C  0.19360735  0.07774912  0.70933562     0.76600
O34         O  0.24232424  0.01265528  0.81403339    -0.56800
O35         O  0.21640152  0.09224194  0.72722021    -0.46900
O36         O  0.21551686  0.05225253  0.82589156    -0.53200
C37         C  0.29198221  0.07788765  0.78530228     0.86800
O38         O  0.27008016  0.05172930  0.66932619    -0.55100
O39         O  0.19586428  0.04912017  0.71100363    -0.58400
In40       In  0.29477047  0.99708500  0.49793370     1.36900
C41         C  0.32263680  0.04620733  0.45975167     0.79300
O42         O  0.29663640  0.96980179  0.41965704    -0.59200
O43         O  0.25718557  0.99672645  0.43203478    -0.50100
C44         C  0.32250375  0.94776684  0.53567204     0.71900
O45         O  0.33696444  0.97047258  0.51724586    -0.44900
C46         C  0.27181247  0.01577846  0.59549179     0.76600
O47         O  0.33704932  0.02350050  0.47825409    -0.56800
O48         O  0.25729355  0.99774164  0.56422064    -0.46900
O49         O  0.29403657  0.04386060  0.46071610    -0.53200
C50         C  0.27168042  0.97887600  0.40032608     0.86800
O51         O  0.29390794  0.95022136  0.53493751    -0.55100
O52         O  0.29678326  0.02467881  0.57585259    -0.58400
In53       In  0.79479563  0.99863708  0.99506845     1.36900
C54         C  0.77177301  0.01682031  0.89740322     0.79300
O55         O  0.79385609  0.04545350  0.03226089    -0.59200
O56         O  0.83694985  0.02530971  0.01439309    -0.50100
C57         C  0.77180758  0.98005427  0.09258815     0.71900
O58         O  0.75727519  0.99803243  0.06125925    -0.44900
C59         C  0.82283982  0.94952016  0.95728900     0.76600
O60         O  0.75728780  0.99890606  0.92897561    -0.56800
O61         O  0.83716777  0.97234827  0.97554623    -0.46900
O62         O  0.79668183  0.02593474  0.91688015    -0.53200
C63         C  0.82244560  0.04797238  0.03292191     0.86800
O64         O  0.79678812  0.97114027  0.07300430    -0.55100
O65         O  0.79422955  0.95175875  0.95821624    -0.58400
In66       In  0.74291687  0.05001670  0.74467071     1.36900
C67         C  0.76117596  0.02729885  0.84252995     0.79300
O68         O  0.78981738  0.04911614  0.70784799    -0.59200
O69         O  0.76942568  0.09223140  0.72478104    -0.50100
C70         C  0.72460116  0.02683393  0.64718047     0.71900
O71         O  0.74234533  0.01226526  0.67888678    -0.44900
C72         C  0.69360198  0.07783298  0.78227376     0.76600
O73         O  0.74344224  0.01258365  0.81100671    -0.56800
O74         O  0.71639585  0.09228787  0.76422795    -0.46900
O75         O  0.77004414  0.05230369  0.82295052    -0.53200
C76         C  0.79218348  0.07774488  0.70664313     0.86800
O77         O  0.71579598  0.05196777  0.66635783    -0.55100
O78         O  0.69596261  0.04920433  0.78119100    -0.58400
In79       In  0.69087351  0.99747473  0.49513028     1.36900
C80         C  0.66301787  0.04657572  0.45696764     0.79300
O81         O  0.68895709  0.02501238  0.57307907    -0.59200
O82         O  0.72841091  0.99803602  0.56113299    -0.50100
C83         C  0.66306700  0.94824341  0.53306957     0.71900
O84         O  0.64862888  0.97104756  0.51504421    -0.44900
C85         C  0.71388510  0.97919987  0.39746787     0.76600
O86         O  0.64860378  0.02385656  0.47546729    -0.56800
O87         O  0.72838231  0.99712014  0.42898469    -0.46900
O88         O  0.69161926  0.04425678  0.45794314    -0.53200
C89         C  0.71392561  0.01605638  0.59253666     0.86800
O90         O  0.69166955  0.95055554  0.53179836    -0.55100
O91         O  0.68896782  0.97009704  0.41701447    -0.58400
In92       In  0.74284178  0.94600844  0.24472300     1.36900
C93         C  0.79204852  0.91827617  0.28268159     0.79300
O94         O  0.77017571  0.94424634  0.16653907    -0.59200
O95         O  0.74324659  0.98371555  0.17891856    -0.50100
C96         C  0.69369326  0.91813003  0.20673321     0.71900
O97         O  0.71657723  0.90369648  0.22436987    -0.44900
C98         C  0.72448807  0.96872037  0.34257012     0.76600
O99         O  0.76935547  0.90378800  0.26436249    -0.56800
O100        O  0.74224135  0.98344160  0.31105475    -0.46900
O101        O  0.78966836  0.94690275  0.28158638    -0.53200
C102        C  0.76117164  0.96927038  0.14727729     0.86800
O103        O  0.69588630  0.94676395  0.20841309    -0.55100
O104        O  0.71562375  0.94371467  0.32297287    -0.58400
C105        C  0.60970002  0.17730542  0.39188834     0.88200
C106        C  0.60452147  0.18244442  0.45431659    -0.52100
C107        C  0.59275935  0.15778035  0.48089846     0.11100
C108        C  0.58710194  0.13029284  0.44301645     0.22100
C109        C  0.63012021  0.14899845  0.38840091    -0.52800
C110        C  0.61814914  0.12440443  0.41558534     0.11200
C111        C  0.57868329  0.16732082  0.36927646    -0.52300
C112        C  0.56684382  0.14273641  0.39626219     0.11800
H113        H  0.61005076  0.20353638  0.47568598     0.16300
H114        H  0.57745316  0.11027676  0.46513615     0.02000
H115        H  0.65232214  0.14877828  0.36858581     0.16600
H116        H  0.56648115  0.17955508  0.33705445     0.16400
C117        C  0.37575835  0.17699868  0.39445765     0.88200
C118        C  0.35539749  0.14865160  0.39113878    -0.52100
C119        C  0.36742871  0.12410254  0.41831946     0.11100
C120        C  0.39847852  0.13007288  0.44558384     0.22100
C121        C  0.38094337  0.18219854  0.45684712    -0.52800
C122        C  0.39275624  0.15757609  0.48344917     0.11200
C123        C  0.40677195  0.16706693  0.37170343    -0.52300
C124        C  0.41867949  0.14252999  0.39865576     0.11800
H125        H  0.33319381  0.14836974  0.37141699     0.16300
H126        H  0.40817794  0.11008947  0.46768850     0.02000
H127        H  0.37533661  0.20328383  0.47819413     0.16600
H128        H  0.41890047  0.17926661  0.33929470     0.16400
C129        C  0.60988919  0.31723206  0.39155625     0.88200
C130        C  0.63017189  0.34562719  0.38771993    -0.52100
C131        C  0.61809633  0.37027403  0.41465561     0.11100
C132        C  0.58708279  0.36433379  0.44218994     0.22100
C133        C  0.60476535  0.31231370  0.45405509    -0.52800
C134        C  0.59289499  0.33702817  0.48037838     0.11200
C135        C  0.57881834  0.32697160  0.36888945    -0.52300
C136        C  0.56686133  0.35158969  0.39562155     0.11800
H137        H  0.65236804  0.34587111  0.36789006     0.16300
H138        H  0.57733892  0.38438662  0.46409536     0.02000
H139        H  0.61040457  0.29133179  0.47565109     0.16600
H140        H  0.56665272  0.31453317  0.33685513     0.16400
C141        C  0.37560395  0.31678018  0.39381777     0.88200
C142        C  0.38083402  0.31181743  0.45625561    -0.52100
C143        C  0.39266473  0.33654750  0.48255063     0.11100
C144        C  0.39834602  0.36390494  0.44438095     0.22100
C145        C  0.35523410  0.34511278  0.39023539    -0.52800
C146        C  0.36727596  0.36977339  0.41711633     0.11200
C147        C  0.40660501  0.32662855  0.37089901    -0.52300
C148        C  0.41852995  0.35125974  0.39758162     0.11800
H149        H  0.37527207  0.29080423  0.47783996     0.16300
H150        H  0.40806076  0.38397165  0.46624718     0.02000
H151        H  0.33302349  0.34531629  0.37053888     0.16600
H152        H  0.41873433  0.31428347  0.33865173     0.16400
C153        C  0.42309582  0.36563419  0.84740760     0.88200
C154        C  0.42813178  0.36028718  0.78500012    -0.52100
C155        C  0.40351428  0.34826746  0.75875528     0.11100
C156        C  0.37617464  0.34253697  0.79694537     0.22100
C157        C  0.39469820  0.38589600  0.85090851    -0.52800
C158        C  0.37014827  0.37366211  0.82408661     0.11200
C159        C  0.41338363  0.33459740  0.87047149    -0.52300
C160        C  0.38884459  0.32249456  0.84384405     0.11800
H161        H  0.44911843  0.36590122  0.76339382     0.16300
H162        H  0.35619193  0.33267681  0.77511628     0.02000
H163        H  0.39436992  0.40816953  0.87051053     0.16600
H164        H  0.42573276  0.32259131  0.90279209     0.16400
C165        C  0.56258589  0.36559830  0.84567336     0.88200
C166        C  0.59097680  0.38585643  0.84917702    -0.52100
C167        C  0.61549544  0.37373248  0.82201812     0.11100
C168        C  0.60945439  0.34269726  0.79457178     0.22100
C169        C  0.55747021  0.36046139  0.78323841    -0.52800
C170        C  0.58206752  0.34853755  0.75666655     0.11200
C171        C  0.57233894  0.33448381  0.86829152    -0.52300
C172        C  0.59684461  0.32248225  0.84131618     0.11800
H173        H  0.59131631  0.40806682  0.86901559     0.16300
H174        H  0.62941667  0.33292215  0.77247502     0.02000
H175        H  0.53644840  0.36612171  0.76187121     0.16600
H176        H  0.56002096  0.32234849  0.90054177     0.16400
C177        C  0.42292445  0.13106368  0.84892052     0.88200
C178        C  0.39458357  0.11072507  0.85281986    -0.52100
C179        C  0.36996991  0.12272257  0.82582436     0.11100
C180        C  0.37588564  0.15372345  0.79817216     0.22100
C181        C  0.42788963  0.13607241  0.78641314    -0.52800
C182        C  0.40321455  0.14785376  0.76001459     0.11200
C183        C  0.41312521  0.16219119  0.87147536    -0.52300
C184        C  0.38853376  0.17407153  0.84470631     0.11800
H185        H  0.39435275  0.08854781  0.87273887     0.16300
H186        H  0.35586085  0.16340017  0.77621722     0.02000
H187        H  0.44887070  0.13038337  0.76484434     0.16600
H188        H  0.42547395  0.17442717  0.90353167     0.16400
C189        C  0.56262780  0.13093316  0.84659563     0.88200
C190        C  0.55744101  0.13582027  0.78412746    -0.52100
C191        C  0.58202557  0.14758144  0.75730180     0.11100
C192        C  0.60947917  0.15352696  0.79499880     0.22100
C193        C  0.59099491  0.11062458  0.85019880    -0.52800
C194        C  0.61550774  0.12258633  0.82276449     0.11200
C195        C  0.57248415  0.16211412  0.86878853    -0.52300
C196        C  0.59697092  0.17395892  0.84156367     0.11800
H197        H  0.53637846  0.13011494  0.76292305     0.16300
H198        H  0.62942460  0.16317779  0.77268846     0.02000
H199        H  0.59131987  0.08850085  0.87031298     0.16600
H200        H  0.56023480  0.17440989  0.90094548     0.16400
C201        C  0.37604257  0.81677325  0.59878779     0.88200
C202        C  0.35558865  0.84503572  0.60277498    -0.52100
C203        C  0.36743833  0.86973978  0.57574798     0.11100
C204        C  0.39842542  0.86398792  0.54796976     0.22100
C205        C  0.38105216  0.81184075  0.53625514    -0.52800
C206        C  0.39270190  0.83661738  0.50984061     0.11200
C207        C  0.40710475  0.82672558  0.62120595    -0.52300
C208        C  0.41883915  0.85140819  0.59438306     0.11800
H209        H  0.33344588  0.84515414  0.62281205     0.16300
H210        H  0.40798453  0.88409087  0.52598501     0.02000
H211        H  0.37549963  0.79080793  0.51471050     0.16600
H212        H  0.41941711  0.81439698  0.65317013     0.16400
C213        C  0.37596339  0.67681745  0.59893956     0.88200
C214        C  0.38132034  0.68191440  0.53654996    -0.52100
C215        C  0.39310571  0.65721100  0.51006031     0.11100
C216        C  0.39862943  0.62974382  0.54801775     0.22100
C217        C  0.35548588  0.64855087  0.60223710    -0.52800
C218        C  0.36749376  0.62392432  0.57515645     0.11200
C219        C  0.40688425  0.66679897  0.62184532    -0.52300
C220        C  0.41876516  0.64219075  0.59498177     0.11800
H221        H  0.37584655  0.70299231  0.51512382     0.16300
H222        H  0.40830993  0.60969716  0.52600067     0.02000
H223        H  0.33322871  0.64837954  0.62184119     0.16600
H224        H  0.41900866  0.67903098  0.65419043     0.16400
C225        C  0.61014394  0.81713984  0.59693925     0.88200
C226        C  0.60499058  0.81217663  0.53448028    -0.52100
C227        C  0.59312833  0.83688058  0.50821130     0.11100
C228        C  0.58734791  0.86422210  0.54640950     0.22100
C229        C  0.63044949  0.84551870  0.60065182    -0.52800
C230        C  0.61837621  0.87015418  0.57378126     0.11200
C231        C  0.57909165  0.82692015  0.61977072    -0.52300
C232        C  0.56714245  0.85153335  0.59310489     0.11800
H233        H  0.61062131  0.79118115  0.51286177     0.16300
H234        H  0.57761323  0.88426797  0.52454630     0.02000
H235        H  0.65265103  0.84576387  0.62038174     0.16600
H236        H  0.56695055  0.81453957  0.65193317     0.16400
C237        C  0.60969866  0.67725246  0.59729924     0.88200
C238        C  0.63013302  0.64894599  0.60036535    -0.52100
C239        C  0.61801534  0.62432792  0.57346980     0.11100
C240        C  0.58682251  0.63019999  0.54670973     0.22100
C241        C  0.60418466  0.68234073  0.53498157    -0.52800
C242        C  0.59229019  0.65765313  0.50866277     0.11200
C243        C  0.57881554  0.66729448  0.62060984    -0.52300
C244        C  0.56683072  0.64268888  0.59391975     0.11800
H245        H  0.65243797  0.64874034  0.61970038     0.16300
H246        H  0.57705237  0.61016449  0.52482988     0.02000
H247        H  0.60964317  0.70340198  0.51346486     0.16600
H248        H  0.56680953  0.67953555  0.65313704     0.16400
C249        C  0.42276516  0.63039001  0.14401823     0.88200
C250        C  0.42808515  0.63528015  0.20646226    -0.52100
C251        C  0.40355998  0.64704939  0.23348167     0.11100
C252        C  0.37604020  0.65301965  0.19594617     0.22100
C253        C  0.39439689  0.61010328  0.14055854    -0.52800
C254        C  0.36995583  0.62208636  0.16815101     0.11200
C255        C  0.41289174  0.66156951  0.12191107    -0.52300
C256        C  0.38845769  0.67342921  0.14929433     0.11800
H257        H  0.44917504  0.62952780  0.22752229     0.16300
H258        H  0.35613459  0.66267412  0.21838570     0.02000
H259        H  0.39401464  0.58798241  0.12038779     0.16600
H260        H  0.42504794  0.67382078  0.08960246     0.16400
C261        C  0.56200444  0.63051399  0.14305364     0.88200
C262        C  0.59041655  0.61029517  0.13929680    -0.52100
C263        C  0.61489721  0.62235568  0.16656998     0.11100
C264        C  0.60879633  0.65328673  0.19438856     0.22100
C265        C  0.55681971  0.63543239  0.20554762    -0.52800
C266        C  0.58137720  0.64728371  0.23225089     0.11200
C267        C  0.57174758  0.66170548  0.12077269    -0.52300
C268        C  0.59621437  0.67363694  0.14785886     0.11800
H269        H  0.59080816  0.58816927  0.11914759     0.16300
H270        H  0.62872938  0.66300769  0.21657458     0.02000
H271        H  0.53578574  0.62966489  0.22686053     0.16600
H272        H  0.55948196  0.67391407  0.08859439     0.16400
C273        C  0.42273668  0.86485287  0.14455892     0.88200
C274        C  0.39440031  0.88521278  0.14097213    -0.52100
C275        C  0.36981106  0.87320592  0.16811783     0.11100
C276        C  0.37574293  0.84217050  0.19559839     0.22100
C277        C  0.42778204  0.85976503  0.20700180    -0.52800
C278        C  0.40313055  0.84796036  0.23353649     0.11200
C279        C  0.41288431  0.83374746  0.12197522    -0.52300
C280        C  0.38831255  0.82185995  0.14890583     0.11800
H281        H  0.39415658  0.90740951  0.12112600     0.16300
H282        H  0.35574165  0.83248106  0.21768508     0.02000
H283        H  0.44880955  0.86537046  0.22841245     0.16600
H284        H  0.42518990  0.82152845  0.08979659     0.16400
C285        C  0.56260959  0.86525614  0.14338225     0.88200
C286        C  0.55773279  0.86010086  0.20587054    -0.52100
C287        C  0.58242437  0.84818909  0.23201853     0.11100
C288        C  0.60968409  0.84237815  0.19369238     0.22100
C289        C  0.59098729  0.88554726  0.13949446    -0.52800
C290        C  0.61562270  0.87342887  0.16625090     0.11200
C291        C  0.57231238  0.83415604  0.12054064    -0.52300
C292        C  0.59691535  0.82216266  0.14710803     0.11800
H293        H  0.53677865  0.86572026  0.22758550     0.16300
H294        H  0.62972039  0.83260113  0.21546676     0.02000
H295        H  0.59123436  0.90776999  0.11974302     0.16600
H296        H  0.55985119  0.82198914  0.08854274     0.16400
In297      In  0.24278183  0.44584888  0.74588273     1.36900
C298        C  0.26102435  0.46855730  0.64806142     0.79300
O299        O  0.28959637  0.44675855  0.78263855    -0.59200
O300        O  0.26929201  0.40362780  0.76542615    -0.50100
C301        C  0.22454111  0.46901391  0.84337084     0.71900
O302        O  0.24230427  0.48357054  0.81162183    -0.44900
C303        C  0.19353863  0.41807458  0.70838141     0.76600
O304        O  0.24325606  0.48326549  0.67959611    -0.56800
O305        O  0.21626557  0.40358919  0.72654042    -0.46900
O306        O  0.26995889  0.44358925  0.66765171    -0.53200
C307        C  0.29200421  0.41813328  0.78362001     0.86800
O308        O  0.21564740  0.44391761  0.82420337    -0.55100
O309        O  0.19592799  0.44669946  0.70935382    -0.58400
In310      In  0.29454891  0.49711477  0.49538383     1.36900
C311        C  0.32249211  0.54620288  0.53345922     0.79300
O312        O  0.29649551  0.52459498  0.41744160    -0.59200
O313        O  0.25701416  0.49765679  0.42935537    -0.50100
C314        C  0.32242304  0.44785541  0.45755649     0.71900
O315        O  0.33681505  0.47065312  0.47575946    -0.44900
C316        C  0.27157360  0.47898800  0.59313015     0.76600
O317        O  0.33685822  0.52345393  0.51492548    -0.56800
O318        O  0.25704247  0.49684747  0.56158450    -0.46900
O319        O  0.29388612  0.54393552  0.53251921    -0.53200
C320        C  0.27151808  0.51565878  0.39797510     0.86800
O321        O  0.29381704  0.45018499  0.45856397    -0.55100
O322        O  0.29647851  0.46986609  0.57355768    -0.58400
In323      In  0.19100003  0.49829308  0.99555159     1.36900
C324        C  0.21392160  0.51651569  0.09319456     0.79300
O325        O  0.19196580  0.54516802  0.95864673    -0.59200
O326        O  0.14886624  0.52481011  0.97557981    -0.50100
C327        C  0.21394617  0.47976064  0.89807176     0.71900
O328        O  0.22856148  0.49762634  0.92951863    -0.44900
C329        C  0.16291381  0.44923109  0.03343900     0.76600
O330        O  0.22847530  0.49862910  0.06164078    -0.56800
O331        O  0.14861814  0.47215415  0.01554790    -0.46900
O332        O  0.18900120  0.52557884  0.07370847    -0.53200
C333        C  0.16336874  0.54753896  0.95736770     0.86800
O334        O  0.18892251  0.47091225  0.91754512    -0.55100
O335        O  0.19153156  0.45132108  0.03200949    -0.58400
In336      In  0.24255676  0.54970903  0.24598393     1.36900
C337        C  0.29188214  0.57744421  0.20859083     0.79300
O338        O  0.26970593  0.55157822  0.32424724    -0.59200
O339        O  0.24304951  0.51194831  0.31166144    -0.50100
C340        C  0.19320285  0.57739212  0.28358430     0.71900
O341        O  0.21598397  0.59191245  0.26567378    -0.44900
C342        C  0.22445928  0.52702383  0.14806172     0.76600
O343        O  0.26925253  0.59193368  0.22724793    -0.56800
O344        O  0.24196902  0.51220602  0.17981326    -0.46900
O345        O  0.28935463  0.54882647  0.20898528    -0.53200
C346        C  0.26084816  0.52646279  0.34336987     0.86800
O347        O  0.19560537  0.54876926  0.28240899    -0.55100
O348        O  0.21574150  0.55214667  0.16741558    -0.58400
C349        C  0.87638241  0.67880217  0.89203153     0.88200
C350        C  0.85589370  0.65056607  0.88823576    -0.52100
C351        C  0.86776317  0.62584718  0.91513650     0.11100
C352        C  0.89880870  0.63156341  0.94261991     0.22100
C353        C  0.88150587  0.68372502  0.95452067    -0.52800
C354        C  0.89316340  0.65893297  0.98083778     0.11200
C355        C  0.90738498  0.66882589  0.86929359    -0.52300
C356        C  0.91914899  0.64413373  0.89598535     0.11800
H357        H  0.83371506  0.65047600  0.86842326     0.16300
H358        H  0.90838484  0.61144637  0.96449625     0.02000
H359        H  0.87597495  0.70475047  0.97612785     0.16600
H360        H  0.91963799  0.68113705  0.83718119     0.16400
C361        C  0.87620564  0.81860604  0.89337858     0.88200
C362        C  0.88106166  0.81339493  0.95584804    -0.52100
C363        C  0.89275307  0.83801066  0.98269836     0.11100
C364        C  0.89865192  0.86552280  0.94500917     0.22100
C365        C  0.85586915  0.84695074  0.88974145    -0.52800
C366        C  0.86775986  0.87149595  0.91717320     0.11200
C367        C  0.90734380  0.82853813  0.87121059    -0.52300
C368        C  0.91910091  0.85306929  0.89844410     0.11800
H369        H  0.87541497  0.79228169  0.97702562     0.16300
H370        H  0.90823877  0.88550366  0.96732277     0.02000
H371        H  0.83379280  0.84724985  0.86954887     0.16600
H372        H  0.91966072  0.81632897  0.83902621     0.16400
C373        C  0.11023681  0.81837635  0.89401194     0.88200
C374        C  0.13058757  0.84673491  0.89059435    -0.52100
C375        C  0.11855672  0.87129209  0.91785108     0.11100
C376        C  0.08752986  0.86531699  0.94528170     0.22100
C377        C  0.10507473  0.81320437  0.95643064    -0.52800
C378        C  0.09325426  0.83783295  0.98309025     0.11200
C379        C  0.07919945  0.82829113  0.87143561    -0.52300
C380        C  0.06730798  0.85283707  0.89849354     0.11800
H381        H  0.15278297  0.84701861  0.87075476     0.16300
H382        H  0.07783063  0.88530433  0.96745170     0.02000
H383        H  0.11065367  0.79211765  0.97773401     0.16600
H384        H  0.06703350  0.81605331  0.83914963     0.16400
C385        C  0.11031796  0.67846664  0.89284130     0.88200
C386        C  0.10493092  0.68334471  0.95528510    -0.52100
C387        C  0.09305205  0.65857704  0.98138161     0.11100
C388        C  0.08747103  0.63126981  0.94302417     0.22100
C389        C  0.13071455  0.65014563  0.88919646    -0.52800
C390        C  0.11861719  0.62545037  0.91589739     0.11200
C391        C  0.07937501  0.66863120  0.86972412    -0.52300
C392        C  0.06739326  0.64396090  0.89621147     0.11800
H393        H  0.11045109  0.70432405  0.97703133     0.16300
H394        H  0.07771329  0.61117395  0.96473841     0.02000
H395        H  0.15300027  0.64999180  0.86969908     0.16600
H396        H  0.06730737  0.68103020  0.83754561     0.16400
C397        C  0.06234911  0.86486865  0.34853331     0.88200
C398        C  0.09070098  0.88516601  0.35263121    -0.52100
C399        C  0.11533429  0.87320496  0.32554379     0.11100
C400        C  0.10942843  0.84226483  0.29761534     0.22100
C401        C  0.05745592  0.85998901  0.28597344    -0.52800
C402        C  0.08215527  0.84821758  0.25950133     0.11200
C403        C  0.07208261  0.83367745  0.37080678    -0.52300
C404        C  0.09668871  0.82182482  0.34392364     0.11800
H405        H  0.09092619  0.90730420  0.37274331     0.16300
H406        H  0.12947287  0.83261019  0.27559241     0.02000
H407        H  0.03648895  0.86568652  0.26445867     0.16600
H408        H  0.05965471  0.82136787  0.40269430     0.16400
C409        C  0.92259813  0.86485046  0.34822565     0.88200
C410        C  0.92780180  0.85963724  0.28582320    -0.52100
C411        C  0.90318011  0.84788504  0.25918726     0.11100
C412        C  0.87567324  0.84225226  0.29701068     0.22100
C413        C  0.89433545  0.88532277  0.35157508    -0.52800
C414        C  0.86978571  0.87335663  0.32433569     0.11200
C415        C  0.91257120  0.83382794  0.37088378    -0.52300
C416        C  0.88803919  0.82198111  0.34385722     0.11800
H417        H  0.94889082  0.86518285  0.26449197     0.16300
H418        H  0.85569463  0.83260294  0.27485656     0.02000
H419        H  0.89411929  0.90755921  0.37131823     0.16600
H420        H  0.92474856  0.82161813  0.40316555     0.16400
C421        C  0.06201308  0.63023840  0.34650358     0.88200
C422        C  0.05709454  0.63529719  0.28400473    -0.52100
C423        C  0.08179435  0.64713378  0.25764389     0.11100
C424        C  0.10907716  0.65298061  0.29580915     0.22100
C425        C  0.09035492  0.60992784  0.35034867    -0.52800
C426        C  0.11497964  0.62197452  0.32340740     0.11200
C427        C  0.07175996  0.66135958  0.36913473    -0.52300
C428        C  0.09636557  0.67327852  0.34237942     0.11800
H429        H  0.03612531  0.62965184  0.26244682     0.16300
H430        H  0.12912308  0.66269079  0.27389079     0.02000
H431        H  0.09059905  0.58775275  0.37028477     0.16600
H432        H  0.05937835  0.67355628  0.40125215     0.16400
C433        C  0.92249450  0.63063609  0.34625906     0.88200
C434        C  0.89413622  0.61030331  0.34944987    -0.52100
C435        C  0.86965650  0.62243496  0.32228494     0.11100
C436        C  0.87570290  0.65353752  0.29514286     0.22100
C437        C  0.92775361  0.63591122  0.28389723    -0.52800
C438        C  0.90319675  0.64781616  0.25729989     0.11200
C439        C  0.91261238  0.66166933  0.36912249    -0.52300
C440        C  0.88814119  0.67366775  0.34216735     0.11800
H441        H  0.89378917  0.58805974  0.36912153     0.16300
H442        H  0.85577444  0.66331452  0.27304445     0.02000
H443        H  0.94882550  0.63029214  0.26256414     0.16600
H444        H  0.92479140  0.67374009  0.40160301     0.16400
C445        C  0.87532205  0.17916221  0.09661826     0.88200
C446        C  0.88036696  0.18426110  0.03415304    -0.52100
C447        C  0.89215350  0.15960167  0.00754004     0.11100
C448        C  0.89797620  0.13217027  0.04543682     0.22100
C449        C  0.85499899  0.15079831  0.10028444    -0.52800
C450        C  0.86699812  0.12621080  0.07308261     0.11200
C451        C  0.90640440  0.16930399  0.11905879    -0.52300
C452        C  0.91827490  0.14473044  0.09206070     0.11800
H453        H  0.87472322  0.20531235  0.01278712     0.16300
H454        H  0.90764891  0.11215881  0.02330162     0.02000
H455        H  0.83285298  0.15051913  0.12030602     0.16600
H456        H  0.91859547  0.18157250  0.15127818     0.16400
C457        C  0.10957115  0.17866249  0.09854371     0.88200
C458        C  0.12983416  0.15027769  0.10270985    -0.52100
C459        C  0.11793020  0.12563058  0.07558179     0.11100
C460        C  0.08708376  0.13155953  0.04752397     0.22100
C461        C  0.10482397  0.18358990  0.03597932    -0.52800
C462        C  0.09311426  0.15888350  0.00945193     0.11200
C463        C  0.07836634  0.16891111  0.12070153    -0.52300
C464        C  0.06658071  0.14428352  0.09378286     0.11800
H465        H  0.15189946  0.15003326  0.12293988     0.16300
H466        H  0.07748002  0.11150595  0.02545177     0.02000
H467        H  0.11055763  0.20458863  0.01449984     0.16600
H468        H  0.06602115  0.18131981  0.15259287     0.16400
C469        C  0.87533595  0.31884673  0.09643119     0.88200
C470        C  0.85498388  0.34720066  0.09976569    -0.52100
C471        C  0.86709162  0.37176629  0.07270498     0.11100
C472        C  0.89819711  0.36580492  0.04553931     0.22100
C473        C  0.88065832  0.31370380  0.03403094    -0.52800
C474        C  0.89254298  0.33835239  0.00755282     0.11200
C475        C  0.90630377  0.32873493  0.11932676    -0.52300
C476        C  0.91828725  0.35328185  0.09248005     0.11800
H477        H  0.83272886  0.34747235  0.11937863     0.16300
H478        H  0.90795892  0.38580578  0.02354090     0.02000
H479        H  0.87508061  0.29264588  0.01259061     0.16600
H480        H  0.91836587  0.31647953  0.15169908     0.16400
C481        C  0.10935551  0.31855527  0.09828455     0.88200
C482        C  0.10416750  0.31341737  0.03587394    -0.52100
C483        C  0.09239878  0.33808379  0.00934511     0.11100
C484        C  0.08674350  0.36556709  0.04726425     0.22100
C485        C  0.12977125  0.34686272  0.10169216    -0.52800
C486        C  0.11779540  0.37145858  0.07456813     0.11200
C487        C  0.07834616  0.32853054  0.12103239    -0.52300
C488        C  0.06649532  0.35310648  0.09409850     0.11800
H489        H  0.10969248  0.29232444  0.01447938     0.16300
H490        H  0.07708539  0.38558387  0.02519861     0.02000
H491        H  0.15197193  0.34708480  0.12142329     0.16600
H492        H  0.06614687  0.31628406  0.15329153     0.16400
C493        C  0.06296009  0.13105406  0.64425824     0.88200
C494        C  0.09124745  0.11062614  0.64067641    -0.52100
C495        C  0.11585569  0.12264239  0.66766995     0.11100
C496        C  0.10999480  0.15375296  0.69499522     0.22100
C497        C  0.05792204  0.13628779  0.70670373    -0.52800
C498        C  0.08260457  0.14810067  0.73307876     0.11200
C499        C  0.07287248  0.16208343  0.62147653    -0.52300
C500        C  0.09745507  0.17398553  0.64825770     0.11800
H501        H  0.09143790  0.08837419  0.62099061     0.16300
H502        H  0.13001834  0.16344891  0.71694474     0.02000
H503        H  0.03689194  0.13074838  0.72823305     0.16600
H504        H  0.06056596  0.17427370  0.58933075     0.16400
C505        C  0.92305208  0.13113520  0.64266208     0.88200
C506        C  0.92787228  0.13641408  0.70512324    -0.52100
C507        C  0.90310196  0.14822977  0.73128887     0.11100
C508        C  0.87583147  0.15383978  0.69299439     0.22100
C509        C  0.89478955  0.11068734  0.63890977    -0.52800
C510        C  0.87008032  0.12270200  0.66569547     0.11200
C511        C  0.91320147  0.16214455  0.61972832    -0.52300
C512        C  0.88851504  0.17405115  0.64628914     0.11800
H513        H  0.94883870  0.13091890  0.72681629     0.16300
H514        H  0.85573078  0.16353899  0.71477981     0.02000
H515        H  0.89468096  0.08842414  0.61926647     0.16600
H516        H  0.92560114  0.17431003  0.58762333     0.16400
C517        C  0.92307684  0.36558872  0.64208704     0.88200
C518        C  0.89468979  0.38585030  0.63835867    -0.52100
C519        C  0.87011545  0.37375557  0.66539577     0.11100
C520        C  0.87610645  0.34275150  0.69293786     0.22100
C521        C  0.92806126  0.36053198  0.70456448    -0.52800
C522        C  0.90341494  0.34865916  0.73102164     0.11200
C523        C  0.91336340  0.33445515  0.61945816    -0.52300
C524        C  0.88880239  0.32248567  0.64628501     0.11800
H525        H  0.89439278  0.40804203  0.61849066     0.16300
H526        H  0.85610178  0.33300438  0.71492818     0.02000
H527        H  0.94902437  0.36626379  0.72606928     0.16600
H528        H  0.92572329  0.32229855  0.58726415     0.16400
C529        C  0.06253323  0.36553731  0.64385761     0.88200
C530        C  0.05721945  0.36045644  0.70626255    -0.52100
C531        C  0.08173080  0.34855530  0.73301215     0.11100
C532        C  0.10923446  0.34267184  0.69530119     0.22100
C533        C  0.09094458  0.38578964  0.64052780    -0.52800
C534        C  0.11537465  0.37366886  0.66785341     0.11200
C535        C  0.07236152  0.33440448  0.62133217    -0.52300
C536        C  0.09678087  0.32242892  0.64848448     0.11800
H537        H  0.03613810  0.36615837  0.72748998     0.16300
H538        H  0.12912527  0.33291162  0.71753937     0.02000
H539        H  0.09137026  0.40796546  0.62060594     0.16600
H540        H  0.06017062  0.32225500  0.58896556     0.16400
In541      In  0.74271782  0.44621200  0.74335075     1.36900
C542        C  0.76100819  0.46953028  0.84072185     0.79300
O543        O  0.69582252  0.44705669  0.78004342    -0.59200
O544        O  0.71626533  0.40396096  0.76306047    -0.50100
C545        C  0.72452253  0.46883979  0.64548920     0.71900
O546        O  0.74218471  0.48361525  0.67704953    -0.44900
C547        C  0.79199881  0.41839527  0.70582855     0.76600
O548        O  0.74317035  0.48400523  0.80905442    -0.56800
O549        O  0.76936892  0.40394436  0.72455771    -0.46900
O550        O  0.76992773  0.44444191  0.82153606    -0.53200
C551        C  0.69349560  0.41842630  0.78118997     0.86800
O552        O  0.71568472  0.44381560  0.66503343    -0.55100
O553        O  0.78949008  0.44701504  0.70621199    -0.58400
In554      In  0.69088139  0.49749053  0.49312350     1.36900
C555        C  0.71395105  0.47928518  0.59062576     0.79300
O556        O  0.69154328  0.54435323  0.53013314    -0.59200
O557        O  0.64857197  0.52373703  0.51326204    -0.50100
C558        C  0.71374521  0.51598893  0.39553578     0.71900
O559        O  0.72831527  0.49799608  0.42677475    -0.44900
C560        C  0.66294346  0.44830388  0.45530250     0.76600
O561        O  0.72842395  0.49723296  0.55909817    -0.56800
O562        O  0.64857880  0.47116074  0.47339090    -0.46900
O563        O  0.68906513  0.47011909  0.57113767    -0.53200
C564        C  0.66293373  0.54654876  0.53149158     0.86800
O565        O  0.68882146  0.52495812  0.41525780    -0.55100
O566        O  0.69155477  0.45053176  0.45646709    -0.58400
In567      In  0.79452382  0.49877284  0.99297584     1.36900
C568        C  0.82233185  0.44960660  0.03102920     0.79300
O569        O  0.79629837  0.52611960  0.07111882    -0.59200
O570        O  0.75693565  0.49904832  0.05902569    -0.50100
C571        C  0.82251196  0.54798893  0.95535871     0.71900
O572        O  0.83684136  0.52521940  0.97379702    -0.44900
C573        C  0.77163464  0.48033038  0.89537456     0.76600
O574        O  0.83676280  0.47239586  0.01288626    -0.56800
O575        O  0.75701050  0.49816857  0.92691887    -0.46900
O576        O  0.79373161  0.45186696  0.02969829    -0.53200
C577        C  0.77138653  0.51697281  0.09060151     0.86800
O578        O  0.79390181  0.54565985  0.95603598    -0.55100
O579        O  0.79667661  0.47152098  0.91474785    -0.58400
In580      In  0.74245340  0.55006154  0.24338958     1.36900
C581        C  0.76074840  0.52742742  0.14548589     0.79300
O582        O  0.69560728  0.54918370  0.20669685    -0.59200
O583        O  0.71578738  0.59228632  0.22459071    -0.50100
C584        C  0.72428221  0.52676479  0.34081768     0.71900
O585        O  0.74207464  0.51227570  0.30899432    -0.44900
C586        C  0.79165163  0.57784238  0.28122708     0.76600
O587        O  0.74315797  0.51259606  0.17713619    -0.56800
O588        O  0.76892020  0.59231973  0.26307735    -0.46900
O589        O  0.76944809  0.55252155  0.16495001    -0.53200
C590        C  0.69311573  0.57780557  0.20617697     0.86800
O591        O  0.71531556  0.55184171  0.32173069    -0.55100
O592        O  0.78928710  0.54921702  0.28011164    -0.58400
C593        C  0.81903746  0.40332146  0.68670819    -0.11600
C594        C  0.84215105  0.39022164  0.67413508    -0.13100
C595        C  0.95067646  0.37750636  0.61554312    -0.16800
C596        C  0.97691263  0.38257115  0.60429989     0.07200
C597        C  0.00898510  0.38255386  0.60485029     0.09100
C598        C  0.03510230  0.37746891  0.61685923    -0.17700
C599        C  0.87937273  0.29141577  0.63773300    -0.16800
C600        C  0.87536532  0.26434520  0.63400427     0.07200
C601        C  0.87524674  0.23221298  0.63400840     0.09100
C602        C  0.87910811  0.20512316  0.63773358    -0.17700
C603        C  0.03533479  0.11925036  0.61767519    -0.16800
C604        C  0.00915699  0.11427998  0.60589111     0.07200
C605        C  0.97707399  0.11430476  0.60535939     0.09100
C606        C  0.95079790  0.11931514  0.61642732    -0.17700
C607        C  0.10681215  0.20508785  0.63996830    -0.16800
C608        C  0.11059848  0.23219113  0.63643030     0.07200
C609        C  0.11036644  0.26431423  0.63647760     0.09100
C610        C  0.10626710  0.29137043  0.64009589    -0.17700
C611        C  0.08741602  0.33864881  0.95021918    -0.16800
C612        C  0.08471451  0.33940102  0.90043068     0.07200
C613        C  0.08294159  0.34107892  0.84198553     0.09100
C614        C  0.08217514  0.34368366  0.79217830    -0.17700
C615        C  0.83742261  0.42267795  0.05057794    -0.11600
C616        C  0.85056237  0.39965478  0.06354002    -0.13100
C617        C  0.90267906  0.34392558  0.79023593    -0.16800
C618        C  0.90183312  0.34142937  0.84007267     0.07200
C619        C  0.90009760  0.33978634  0.89855205     0.09100
C620        C  0.89747245  0.33899133  0.94837484    -0.17700
C621        C  0.94928005  0.36275533  0.10123153    -0.16800
C622        C  0.97631465  0.36666270  0.10527318     0.07200
C623        C  0.00840173  0.36658592  0.10574362     0.09100
C624        C  0.03545548  0.36258427  0.10239557    -0.17700
C625        C  0.08329288  0.15307831  0.79220807    -0.16800
C626        C  0.08413947  0.15572816  0.84200293     0.07200
C627        C  0.08585582  0.15741881  0.90044846     0.09100
C628        C  0.08840579  0.15819453  0.95026009    -0.17700
C629        C  0.12127760  0.20634115  0.12518871    -0.16800
C630        C  0.12620610  0.23260019  0.13665535     0.07200
C631        C  0.12615019  0.26471388  0.13655942     0.09100
C632        C  0.12113732  0.29093363  0.12496546    -0.17700
C633        C  0.90226978  0.15331638  0.79038015    -0.16800
C634        C  0.90136247  0.15612918  0.84014289     0.07200
C635        C  0.89958545  0.15805879  0.89856055     0.09100
C636        C  0.89697231  0.15896597  0.94836130    -0.17700
C637        C  0.94927036  0.13516013  0.10052137    -0.16800
C638        C  0.97629531  0.13111474  0.10443764     0.07200
C639        C  0.00839082  0.13102429  0.10490785     0.09100
C640        C  0.03547161  0.13490843  0.10169446    -0.17700
C641        C  0.86343653  0.29127573  0.12312325    -0.16800
C642        C  0.85842230  0.26507689  0.13484422     0.07200
C643        C  0.85846191  0.23297367  0.13498528     0.09100
C644        C  0.86350661  0.20675462  0.12341102    -0.17700
C645        C  0.84172443  0.60598221  0.31324767    -0.11600
C646        C  0.81864257  0.59290092  0.30050899    -0.13100
C647        C  0.03439606  0.61839093  0.37307251    -0.16800
C648        C  0.00819285  0.61340986  0.38466769     0.07200
C649        C  0.97612428  0.61352705  0.38467363     0.09100
C650        C  0.94997296  0.61867610  0.37303260    -0.17700
C651        C  0.87851769  0.79092410  0.35213789    -0.16800
C652        C  0.87454039  0.76384157  0.35555137     0.07200
C653        C  0.87456165  0.73171614  0.35512920     0.09100
C654        C  0.87858013  0.70466624  0.35104174    -0.17700
C655        C  0.10596146  0.79066130  0.35177027    -0.16800
C656        C  0.10979732  0.76355051  0.35497595     0.07200
C657        C  0.10973607  0.73142360  0.35463093     0.09100
C658        C  0.10578216  0.70435166  0.35084152    -0.17700
C659        C  0.03468835  0.87663754  0.37514109    -0.16800
C660        C  0.00846119  0.88161646  0.38663233     0.07200
C661        C  0.97637847  0.88161155  0.38658191     0.09100
C662        C  0.95017988  0.87662299  0.37499094    -0.17700
C663        C  0.08256461  0.65206355  0.19849776    -0.16800
C664        C  0.08348678  0.65479474  0.14871591     0.07200
C665        C  0.08532475  0.65670931  0.09029098     0.09100
C666        C  0.08803321  0.65770870  0.04050616    -0.17700
C667        C  0.08828528  0.83836724  0.04224453    -0.16800
C668        C  0.08559171  0.83911326  0.09204876     0.07200
C669        C  0.08379082  0.84080052  0.15050407     0.09100
C670        C  0.08290866  0.84340119  0.20031597    -0.17700
C671        C  0.12207348  0.79078772  0.86720061    -0.16800
C672        C  0.12712209  0.76457538  0.85553298     0.07200
C673        C  0.12718409  0.73246126  0.85533839     0.09100
C674        C  0.12220081  0.70619208  0.86662174    -0.17700
C675        C  0.89756138  0.83845684  0.04188147    -0.16800
C676        C  0.90016881  0.83907083  0.09169641     0.07200
C677        C  0.90187149  0.84057624  0.15016917     0.09100
C678        C  0.90263068  0.84306179  0.20000234    -0.17700
C679        C  0.03629912  0.86236355  0.89018090    -0.16800
C680        C  0.00926730  0.86642889  0.88668364     0.07200
C681        C  0.97718356  0.86654252  0.88679430     0.09100
C682        C  0.95013219  0.86260848  0.89037338    -0.17700
C683        C  0.85104183  0.59800053  0.92379421    -0.11600
C684        C  0.83773040  0.57497633  0.93627205    -0.13100
C685        C  0.89791973  0.65810981  0.04003023    -0.16800
C686        C  0.90041636  0.65717484  0.08985317     0.07200
C687        C  0.90200321  0.65536677  0.14831801     0.09100
C688        C  0.90269701  0.65272573  0.19813158    -0.17700
C689        C  0.95016331  0.63459152  0.88749986    -0.16800
C690        C  0.97721440  0.63063727  0.88375468     0.07200
C691        C  0.00931248  0.63064414  0.88372175     0.09100
C692        C  0.03636343  0.63456706  0.88748070    -0.17700
C693        C  0.86469584  0.70651374  0.86555146    -0.16800
C694        C  0.85970487  0.73275419  0.85412725     0.07200
C695        C  0.85962846  0.76485669  0.85439500     0.09100
C696        C  0.86452964  0.79105495  0.86629936    -0.17700
C697        C  0.16611358  0.59240975  0.30260594    -0.11600
C698        C  0.14296191  0.60549968  0.31496550    -0.13100
C699        C  0.14834726  0.57452265  0.93781925    -0.11600
C700        C  0.13520784  0.59756575  0.92491271    -0.13100
C701        C  0.14765581  0.42233378  0.05278343    -0.11600
C702        C  0.13440392  0.39933003  0.06555590    -0.13100
C703        C  0.16651582  0.40303540  0.68925365    -0.11600
C704        C  0.14337510  0.39002496  0.67666895    -0.13100
C705        C  0.45035823  0.87668691  0.11789370    -0.16800
C706        C  0.47654636  0.88180465  0.10627125     0.07200
C707        C  0.50863736  0.88200947  0.10597715     0.09100
C708        C  0.53491366  0.87712483  0.11715163    -0.17700
C709        C  0.66604603  0.59285860  0.18730750    -0.11600
C710        C  0.64290315  0.60595077  0.17502824    -0.13100
C711        C  0.60567268  0.70470634  0.13956043    -0.16800
C712        C  0.60969828  0.73176594  0.13580598     0.07200
C713        C  0.60986265  0.76388870  0.13549036     0.09100
C714        C  0.60610456  0.79100459  0.13884342    -0.17700
C715        C  0.34203018  0.60559675  0.17697358    -0.11600
C716        C  0.31893376  0.59248187  0.18952482    -0.13100
C717        C  0.37890330  0.70448310  0.14109852    -0.16800
C718        C  0.37490800  0.73155251  0.13737042     0.07200
C719        C  0.37490513  0.76368398  0.13714978     0.09100
C720        C  0.37886885  0.79077130  0.14062004    -0.17700
C721        C  0.53453826  0.61861844  0.11615091    -0.16800
C722        C  0.50837874  0.61353244  0.10450748     0.07200
C723        C  0.47631835  0.61351798  0.10474239     0.09100
C724        C  0.45018870  0.61856845  0.11675737    -0.17700
C725        C  0.63457630  0.59645033  0.56416504    -0.11600
C726        C  0.64775967  0.57344226  0.55113363    -0.13100
C727        C  0.58719101  0.65699893  0.44956011    -0.16800
C728        C  0.58447336  0.65621645  0.39976701     0.07200
C729        C  0.58270461  0.65455731  0.34130356     0.09100
C730        C  0.58191712  0.65202364  0.29147223    -0.17700
C731        C  0.58316849  0.84312583  0.29110271    -0.16800
C732        C  0.58397130  0.84036884  0.34087032     0.07200
C733        C  0.58563884  0.83852588  0.39929334     0.09100
C734        C  0.58822945  0.83763033  0.44908408    -0.17700
C735        C  0.62199587  0.78947940  0.62337562    -0.16800
C736        C  0.62692930  0.76323799  0.63491345     0.07200
C737        C  0.62677757  0.73112627  0.63507305     0.09100
C738        C  0.62163849  0.70489327  0.62372440    -0.17700
C739        C  0.35086033  0.59609379  0.56597157    -0.11600
C740        C  0.33765441  0.57310206  0.55300410    -0.13100
C741        C  0.39807642  0.65655311  0.45089882    -0.16800
C742        C  0.40071648  0.65575816  0.40108016     0.07200
C743        C  0.40240522  0.65412755  0.34259597     0.09100
C744        C  0.40311877  0.65167065  0.29274288    -0.17700
C745        C  0.44975406  0.63266883  0.60356603    -0.16800
C746        C  0.47680555  0.62878584  0.60726420     0.07200
C747        C  0.50889183  0.62896700  0.60708235     0.09100
C748        C  0.53589880  0.63308670  0.60303459    -0.17700
C749        C  0.40251701  0.84301528  0.29266625    -0.16800
C750        C  0.40175899  0.84028230  0.34244600     0.07200
C751        C  0.40009380  0.83837281  0.40087132     0.09100
C752        C  0.39751499  0.83740078  0.45067059    -0.17700
C753        C  0.53609440  0.86093186  0.60169586    -0.16800
C754        C  0.50904473  0.86486730  0.60552133     0.07200
C755        C  0.47694844  0.86487373  0.60579525     0.09100
C756        C  0.44988795  0.86091420  0.60243811    -0.17700
C757        C  0.36418910  0.70447495  0.62558465    -0.16800
C758        C  0.35928270  0.73073180  0.63709679     0.07200
C759        C  0.35938358  0.76284210  0.63699097     0.09100
C760        C  0.36437865  0.78906553  0.62538802    -0.17700
C761        C  0.53509402  0.11918782  0.87366795    -0.16800
C762        C  0.50893752  0.11424723  0.88574779     0.07200
C763        C  0.47685302  0.11427709  0.88644897     0.09100
C764        C  0.45058875  0.11927097  0.87536280    -0.17700
C765        C  0.66650957  0.40333595  0.80047285    -0.11600
C766        C  0.64344058  0.39019641  0.81314129    -0.13100
C767        C  0.60621151  0.29138553  0.84964765    -0.16800
C768        C  0.61017202  0.26430398  0.85315036     0.07200
C769        C  0.61024396  0.23217570  0.85305761     0.09100
C770        C  0.60636761  0.20508010  0.84953980    -0.17700
C771        C  0.34215534  0.39004927  0.81531556    -0.11600
C772        C  0.31903182  0.40310291  0.80276421    -0.13100
C773        C  0.37913127  0.20516705  0.85307216    -0.16800
C774        C  0.37527954  0.23226320  0.85672509     0.07200
C775        C  0.37541421  0.26439386  0.85664332     0.09100
C776        C  0.37943230  0.29145334  0.85275299    -0.17700
C777        C  0.45066276  0.37769008  0.87375168    -0.16800
C778        C  0.47688584  0.38279544  0.88492076     0.07200
C779        C  0.50895449  0.38273184  0.88438763     0.09100
C780        C  0.53508366  0.37757500  0.87247665    -0.17700
C781        C  0.35073953  0.39772933  0.42585225    -0.11600
C782        C  0.33756255  0.42082911  0.43838832    -0.13100
C783        C  0.40286127  0.34313800  0.69965615    -0.16800
C784        C  0.40204769  0.34030063  0.64988653     0.07200
C785        C  0.40029228  0.33831718  0.59146464     0.09100
C786        C  0.39762229  0.33732275  0.54168079    -0.17700
C787        C  0.63460556  0.39824106  0.42341814    -0.11600
C788        C  0.64777051  0.42132418  0.43605713    -0.13100
C789        C  0.58795079  0.33781613  0.53952694    -0.16800
C790        C  0.58526780  0.33879764  0.58931800     0.07200
C791        C  0.58348607  0.34074205  0.64774699     0.09100
C792        C  0.58266129  0.34352700  0.69752859    -0.17700
C793        C  0.53575249  0.36084993  0.38744886    -0.16800
C794        C  0.50867302  0.36469496  0.38421381     0.07200
C795        C  0.47658044  0.36465571  0.38478341     0.09100
C796        C  0.44954407  0.36071475  0.38884885    -0.17700
C797        C  0.40249279  0.15254176  0.70080113    -0.16800
C798        C  0.40171695  0.15494465  0.65095491     0.07200
C799        C  0.40009784  0.15641023  0.59246539     0.09100
C800        C  0.39757620  0.15704377  0.54263279    -0.17700
C801        C  0.36392128  0.20456089  0.36767935    -0.16800
C802        C  0.35887621  0.23075709  0.35598679     0.07200
C803        C  0.35881170  0.26286401  0.35586229     0.09100
C804        C  0.36377659  0.28911129  0.36733693    -0.17700
C805        C  0.58779429  0.15722389  0.54004192    -0.16800
C806        C  0.58510759  0.15649882  0.58984075     0.07200
C807        C  0.58333937  0.15486975  0.64829156     0.09100
C808        C  0.58254979  0.15233055  0.69810827    -0.17700
C809        C  0.44965109  0.13294681  0.38984308    -0.16800
C810        C  0.47667963  0.12900297  0.38559552     0.07200
C811        C  0.50877157  0.12911780  0.38485845     0.09100
C812        C  0.53582004  0.13319214  0.38805022    -0.17700
C813        C  0.62149286  0.20493575  0.36519257    -0.16800
C814        C  0.62655862  0.23116045  0.35367417     0.07200
C815        C  0.62667647  0.26327813  0.35365181     0.09100
C816        C  0.62174130  0.28954429  0.36509384    -0.17700
C817        C  0.81899608  0.90321191  0.30218702    -0.11600
C818        C  0.84198412  0.89002258  0.31514423    -0.13100
C819        C  0.64360425  0.88990350  0.17487863    -0.11600
C820        C  0.66671074  0.90301080  0.18746262    -0.13100
C821        C  0.64791408  0.07350841  0.43745535    -0.11600
C822        C  0.63475060  0.09653689  0.42458801    -0.13100
C823        C  0.64798614  0.92122684  0.55235702    -0.11600
C824        C  0.63487334  0.89812004  0.56501002    -0.13100
C825        C  0.81919229  0.09281979  0.68728856    -0.11600
C826        C  0.84222741  0.10603314  0.67456431    -0.13100
C827        C  0.64344910  0.10606103  0.81396254    -0.11600
C828        C  0.66655292  0.09292434  0.80139041    -0.13100
C829        C  0.83743904  0.07506829  0.05204162    -0.11600
C830        C  0.85051768  0.09822436  0.06448868    -0.13100
C831        C  0.83804047  0.92254040  0.93818643    -0.11600
C832        C  0.85123245  0.89944721  0.92575561    -0.13100
C833        C  0.35088445  0.09620527  0.42740267    -0.11600
C834        C  0.33773697  0.07315937  0.44026461    -0.13100
C835        C  0.33756143  0.92070703  0.55479055    -0.11600
C836        C  0.35076156  0.89762167  0.56723882    -0.13100
C837        C  0.34205314  0.10615183  0.81713410    -0.11600
C838        C  0.31897848  0.09299789  0.80452443    -0.13100
C839        C  0.14368451  0.10599551  0.67674679    -0.11600
C840        C  0.16667914  0.09281527  0.68971521    -0.13100
C841        C  0.31883647  0.90293653  0.18981747    -0.11600
C842        C  0.34190217  0.88978085  0.17704581    -0.13100
C843        C  0.16634325  0.90297444  0.30449502    -0.11600
C844        C  0.14325923  0.88979058  0.31699385    -0.13100
C845        C  0.13447813  0.09764969  0.06723624    -0.11600
C846        C  0.14769250  0.07453865  0.05492170    -0.13100
C847        C  0.14816103  0.92227601  0.93985102    -0.11600
C848        C  0.13507268  0.89921186  0.92689413    -0.13100
loop_ 
_geom_bond_atom_site_label_1 
_geom_bond_atom_site_label_2 
_geom_bond_distance 
_geom_bond_site_symmetry_2 
_ccdc_geom_bond_type 
In1           O3   2.242       .  S
In1           O4   2.241       .  S
In1          O12   2.233   1_556  S
In1           O6   2.292   1_556  S
In1           O8   2.292       .  S
In1           O9   2.241   1_566  S
In1          O10   2.233   1_565  S
In1          O13   2.242   1_566  S
C2            O8   1.266   1_545  A
C2           O10   1.257       .  A
C2           C28   1.475       .  S
O3           C11   1.262       .  A
O4           C11   1.263       .  A
C5           O12   1.257       .  A
C5            O6   1.266       .  A
C5           C18   1.475       .  S
C7            O9   1.263       .  A
C7           O13   1.262       .  A
C7          C846   1.436       .  S
C11         C847   1.436       .  S
In14         O16   2.243       .  S
In14         O17   2.241       .  S
In14         O25   2.233       .  S
In14         O19   2.292       .  S
In14         O21   2.292       .  S
In14         O22   2.242       .  S
In14         O23   2.233       .  S
In14         O26   2.243       .  S
C15          O21   1.266       .  A
C15          O23   1.257       .  A
C15          C50   1.475       .  S
O16          C24   1.262       .  A
O17          C24   1.263       .  A
C18          O25   1.257       .  A
C18          O19   1.266       .  A
C20          O22   1.263       .  A
C20          O26   1.262       .  A
C20         C841   1.437       .  S
C24         C843   1.436       .  S
In27         O29   2.243       .  S
In27         O30   2.242       .  S
In27         O38   2.234       .  S
In27         O32   2.293       .  S
In27         O34   2.292       .  S
In27         O35   2.242       .  S
In27         O36   2.234       .  S
In27         O39   2.243       .  S
C28          O34   1.266       .  A
C28          O36   1.257       .  A
O29          C37   1.262       .  A
O30          C37   1.263       .  A
C31          O38   1.257       .  A
C31          O32   1.266       .  A
C31          C46   1.476       .  S
C33          O35   1.263       .  A
C33          O39   1.262       .  A
C33         C840   1.437       .  S
C37         C838   1.437       .  S
In40         O42   2.234       .  S
In40         O43   2.292       .  S
In40         O51   2.243       .  S
In40         O45   2.242       .  S
In40         O47   2.241   1_565  S
In40         O48   2.293       .  S
In40         O49   2.242   1_565  S
In40         O52   2.234   1_565  S
C41          O47   1.263       .  A
C41          O49   1.262       .  A
C41         C834   1.436       .  S
O42          C50   1.257       .  A
O43          C50   1.266       .  A
C44          O51   1.262       .  A
C44          O45   1.263       .  A
C44         C835   1.436       .  S
C46          O48   1.266   1_545  A
C46          O52   1.257       .  A
In53         O55   2.242   1_566  S
In53         O56   2.241   1_566  S
In53         O64   2.234   1_556  S
In53         O58   2.292   1_556  S
In53         O60   2.293       .  S
In53         O61   2.241       .  S
In53         O62   2.234   1_565  S
In53         O65   2.241       .  S
C54          O60   1.266   1_545  A
C54          O62   1.257       .  A
C54          C67   1.475       .  S
O55          C63   1.262       .  A
O56          C63   1.263       .  A
C57          O64   1.257       .  A
C57          O58   1.266       .  A
C57         C102   1.475       .  S
C59          O61   1.263       .  A
C59          O65   1.262       .  A
C59         C831   1.435       .  S
C63         C829   1.436       .  S
In66         O68   2.244       .  S
In66         O69   2.241       .  S
In66         O77   2.233       .  S
In66         O71   2.292       .  S
In66         O73   2.293       .  S
In66         O74   2.242       .  S
In66         O75   2.233       .  S
In66         O78   2.243       .  S
C67          O73   1.266       .  A
C67          O75   1.257       .  A
O68          C76   1.262       .  A
O69          C76   1.263       .  A
C70          O77   1.257       .  A
C70          O71   1.266       .  A
C70          C89   1.475       .  S
C72          O74   1.263       .  A
C72          O78   1.262       .  A
C72         C828   1.436       .  S
C76         C825   1.437       .  S
In79         O81   2.233   1_565  S
In79         O82   2.292       .  S
In79         O90   2.242       .  S
In79         O84   2.241       .  S
In79         O86   2.241   1_565  S
In79         O87   2.291       .  S
In79         O88   2.242   1_565  S
In79         O91   2.233       .  S
C80          O86   1.263       .  A
C80          O88   1.262       .  A
C80         C821   1.436       .  S
O81          C89   1.257       .  A
O82          C89   1.266   1_565  A
C83          O90   1.262       .  A
C83          O84   1.263       .  A
C83         C823   1.436       .  S
C85          O87   1.266       .  A
C85          O91   1.257       .  A
C85          C98   1.474       .  S
In92         O94   2.233       .  S
In92         O95   2.292       .  S
In92        O103   2.243       .  S
In92         O97   2.242       .  S
In92         O99   2.241       .  S
In92        O100   2.291       .  S
In92        O101   2.243       .  S
In92        O104   2.233       .  S
C93          O99   1.263       .  A
C93         O101   1.262       .  A
C93         C817   1.436       .  S
O94         C102   1.257       .  A
O95         C102   1.266       .  A
C96         O103   1.262       .  A
C96          O97   1.263       .  A
C96         C820   1.437       .  S
C98         O100   1.266       .  A
C98         O104   1.257       .  A
C105        C106   1.536       .  S
C105        C111   1.533       .  S
C105        C109   1.536       .  S
C105        C813   1.468       .  S
C106        H113   1.087       .  S
C106        C107   1.360       .  D
C107        C108   1.533       .  S
C107        C805   1.440       .  S
C108        C112   1.537       .  S
C108        C110   1.537       .  S
C108        H114   1.112       .  S
C109        H115   1.086       .  S
C109        C110   1.368       .  D
C110        C822   1.441       .  S
C111        H116   1.086       .  S
C111        C112   1.363       .  D
C112        C812   1.441       .  S
C117        C118   1.535       .  S
C117        C123   1.532       .  S
C117        C121   1.536       .  S
C117        C801   1.467       .  S
C118        H125   1.086       .  S
C118        C119   1.368       .  D
C119        C120   1.538       .  S
C119        C833   1.441       .  S
C120        C124   1.537       .  S
C120        C122   1.533       .  S
C120        H126   1.112       .  S
C121        H127   1.087       .  S
C121        C122   1.360       .  D
C122        C800   1.441       .  S
C123        H128   1.086       .  S
C123        C124   1.363       .  D
C124        C809   1.441       .  S
C129        C130   1.536       .  S
C129        C135   1.532       .  S
C129        C133   1.536       .  S
C129        C816   1.468       .  S
C130        H137   1.086       .  S
C130        C131   1.368       .  D
C131        C132   1.538       .  S
C131        C787   1.442       .  S
C132        C136   1.537       .  S
C132        C134   1.533       .  S
C132        H138   1.112       .  S
C133        H139   1.087       .  S
C133        C134   1.360       .  D
C134        C789   1.441       .  S
C135        H140   1.086       .  S
C135        C136   1.363       .  D
C136        C793   1.440       .  S
C141        C142   1.536       .  S
C141        C147   1.532       .  S
C141        C145   1.535       .  S
C141        C804   1.467       .  S
C142        H149   1.087       .  S
C142        C143   1.360       .  D
C143        C144   1.533       .  S
C143        C786   1.441       .  S
C144        C148   1.537       .  S
C144        C146   1.538       .  S
C144        H150   1.112       .  S
C145        H151   1.086       .  S
C145        C146   1.368       .  D
C146        C781   1.442       .  S
C147        H152   1.086       .  S
C147        C148   1.363       .  D
C148        C796   1.440       .  S
C153        C154   1.536       .  S
C153        C159   1.532       .  S
C153        C157   1.535       .  S
C153        C777   1.467       .  S
C154        H161   1.087       .  S
C154        C155   1.360       .  D
C155        C156   1.533       .  S
C155        C783   1.441       .  S
C156        C160   1.537       .  S
C156        C158   1.538       .  S
C156        H162   1.112       .  S
C157        H163   1.086       .  S
C157        C158   1.368       .  D
C158        C771   1.441       .  S
C159        H164   1.086       .  S
C159        C160   1.363       .  D
C160        C776   1.441       .  S
C165        C166   1.535       .  S
C165        C171   1.533       .  S
C165        C169   1.537       .  S
C165        C780   1.467       .  S
C166        H173   1.086       .  S
C166        C167   1.368       .  D
C167        C168   1.538       .  S
C167        C766   1.441       .  S
C168        C172   1.537       .  S
C168        C170   1.533       .  S
C168        H174   1.112       .  S
C169        H175   1.087       .  S
C169        C170   1.360       .  D
C170        C792   1.441       .  S
C171        H176   1.086       .  S
C171        C172   1.363       .  D
C172        C767   1.441       .  S
C177        C178   1.536       .  S
C177        C183   1.532       .  S
C177        C181   1.536       .  S
C177        C764   1.468       .  S
C178        H185   1.086       .  S
C178        C179   1.368       .  D
C179        C180   1.538       .  S
C179        C837   1.442       .  S
C180        C184   1.537       .  S
C180        C182   1.533       .  S
C180        H186   1.112       .  S
C181        H187   1.087       .  S
C181        C182   1.360       .  D
C182        C797   1.441       .  S
C183        H188   1.086       .  S
C183        C184   1.363       .  D
C184        C773   1.441       .  S
C189        C190   1.536       .  S
C189        C195   1.532       .  S
C189        C193   1.536       .  S
C189        C761   1.468       .  S
C190        H197   1.087       .  S
C190        C191   1.360       .  D
C191        C192   1.533       .  S
C191        C808   1.440       .  S
C192        C196   1.537       .  S
C192        C194   1.538       .  S
C192        H198   1.112       .  S
C193        H199   1.086       .  S
C193        C194   1.368       .  D
C194        C827   1.442       .  S
C195        H200   1.086       .  S
C195        C196   1.363       .  D
C196        C770   1.441       .  S
C201        C202   1.536       .  S
C201        C207   1.532       .  S
C201        C205   1.536       .  S
C201        C760   1.468       .  S
C202        H209   1.086       .  S
C202        C203   1.368       .  D
C203        C204   1.538       .  S
C203        C836   1.442       .  S
C204        C208   1.537       .  S
C204        C206   1.533       .  S
C204        H210   1.112       .  S
C205        H211   1.087       .  S
C205        C206   1.360       .  D
C206        C752   1.440       .  S
C207        H212   1.086       .  S
C207        C208   1.363       .  D
C208        C756   1.441       .  S
C213        C214   1.537       .  S
C213        C219   1.532       .  S
C213        C217   1.535       .  S
C213        C757   1.467       .  S
C214        H221   1.087       .  S
C214        C215   1.360       .  D
C215        C216   1.533       .  S
C215        C741   1.441       .  S
C216        C220   1.537       .  S
C216        C218   1.537       .  S
C216        H222   1.112       .  S
C217        H223   1.086       .  S
C217        C218   1.368       .  D
C218        C739   1.441       .  S
C219        H224   1.086       .  S
C219        C220   1.363       .  D
C220        C745   1.440       .  S
C225        C226   1.536       .  S
C225        C231   1.532       .  S
C225        C229   1.536       .  S
C225        C735   1.467       .  S
C226        H233   1.087       .  S
C226        C227   1.360       .  D
C227        C228   1.533       .  S
C227        C734   1.440       .  S
C228        C232   1.537       .  S
C228        C230   1.538       .  S
C228        H234   1.112       .  S
C229        H235   1.086       .  S
C229        C230   1.368       .  D
C230        C824   1.442       .  S
C231        H236   1.086       .  S
C231        C232   1.363       .  D
C232        C753   1.441       .  S
C237        C238   1.536       .  S
C237        C243   1.532       .  S
C237        C241   1.536       .  S
C237        C738   1.467       .  S
C238        H245   1.086       .  S
C238        C239   1.368       .  D
C239        C240   1.537       .  S
C239        C725   1.442       .  S
C240        C244   1.537       .  S
C240        C242   1.533       .  S
C240        H246   1.112       .  S
C241        H247   1.087       .  S
C241        C242   1.360       .  D
C242        C727   1.441       .  S
C243        H248   1.086       .  S
C243        C244   1.363       .  D
C244        C748   1.440       .  S
C249        C250   1.537       .  S
C249        C255   1.532       .  S
C249        C253   1.535       .  S
C249        C724   1.467       .  S
C250        H257   1.087       .  S
C250        C251   1.360       .  D
C251        C252   1.533       .  S
C251        C744   1.441       .  S
C252        C256   1.537       .  S
C252        C254   1.538       .  S
C252        H258   1.112       .  S
C253        H259   1.086       .  S
C253        C254   1.368       .  D
C254        C715   1.441       .  S
C255        H260   1.086       .  S
C255        C256   1.363       .  D
C256        C717   1.441       .  S
C261        C262   1.535       .  S
C261        C267   1.532       .  S
C261        C265   1.537       .  S
C261        C721   1.467       .  S
C262        H269   1.086       .  S
C262        C263   1.368       .  D
C263        C264   1.538       .  S
C263        C710   1.441       .  S
C264        C268   1.537       .  S
C264        C266   1.533       .  S
C264        H270   1.112       .  S
C265        H271   1.087       .  S
C265        C266   1.360       .  D
C266        C730   1.441       .  S
C267        H272   1.086       .  S
C267        C268   1.363       .  D
C268        C711   1.440       .  S
C273        C274   1.536       .  S
C273        C279   1.533       .  S
C273        C277   1.536       .  S
C273        C705   1.468       .  S
C274        H281   1.086       .  S
C274        C275   1.368       .  D
C275        C276   1.538       .  S
C275        C842   1.442       .  S
C276        C280   1.537       .  S
C276        C278   1.533       .  S
C276        H282   1.112       .  S
C277        H283   1.087       .  S
C277        C278   1.360       .  D
C278        C749   1.440       .  S
C279        H284   1.086       .  S
C279        C280   1.363       .  D
C280        C720   1.441       .  S
C285        C286   1.536       .  S
C285        C291   1.532       .  S
C285        C289   1.536       .  S
C285        C708   1.468       .  S
C286        H293   1.087       .  S
C286        C287   1.360       .  D
C287        C288   1.533       .  S
C287        C731   1.440       .  S
C288        C292   1.537       .  S
C288        C290   1.538       .  S
C288        H294   1.112       .  S
C289        H295   1.086       .  S
C289        C290   1.368       .  D
C290        C819   1.442       .  S
C291        H296   1.086       .  S
C291        C292   1.363       .  D
C292        C714   1.440       .  S
In297       O299   2.241       .  S
In297       O300   2.240       .  S
In297       O308   2.232       .  S
In297       O302   2.290       .  S
In297       O304   2.291       .  S
In297       O305   2.240       .  S
In297       O306   2.231       .  S
In297       O309   2.241       .  S
C298        O304   1.266       .  A
C298        O306   1.257       .  A
C298        C316   1.474       .  S
O299        C307   1.262       .  A
O300        C307   1.263       .  A
C301        O308   1.257       .  A
C301        O302   1.266       .  A
C301        C327   1.474       .  S
C303        O305   1.263       .  A
C303        O309   1.262       .  A
C303        C703   1.435       .  S
C307        C772   1.436       .  S
In310       O312   2.233       .  S
In310       O313   2.292       .  S
In310       O321   2.243       .  S
In310       O315   2.241       .  S
In310       O317   2.240       .  S
In310       O318   2.292       .  S
In310       O319   2.242       .  S
In310       O322   2.232       .  S
C311        O317   1.263       .  A
C311        O319   1.262       .  A
C311        C740   1.436       .  S
O312        C320   1.257       .  A
O313        C320   1.266       .  A
C314        O321   1.262       .  A
C314        O315   1.263       .  A
C314        C782   1.436       .  S
C316        O318   1.266       .  A
C316        O322   1.257       .  A
C320        C346   1.475       .  S
In323       O325   2.243       .  S
In323       O326   2.241       .  S
In323       O334   2.231       .  S
In323       O328   2.291       .  S
In323       O330   2.291   1_556  S
In323       O331   2.240   1_556  S
In323       O332   2.232   1_556  S
In323       O335   2.242   1_556  S
C324        O330   1.266       .  A
C324        O332   1.257       .  A
C324        C342   1.474       .  S
O325        C333   1.262       .  A
O326        C333   1.263       .  A
C327        O334   1.257       .  A
C327        O328   1.266       .  A
C329        O331   1.263       .  A
C329        O335   1.262       .  A
C329        C701   1.436       .  S
C333        C699   1.436       .  S
In336       O338   2.233       .  S
In336       O339   2.292       .  S
In336       O347   2.242       .  S
In336       O341   2.241       .  S
In336       O343   2.240       .  S
In336       O344   2.291       .  S
In336       O345   2.241       .  S
In336       O348   2.232       .  S
C337        O343   1.263       .  A
C337        O345   1.262       .  A
C337        C716   1.435       .  S
O338        C346   1.257       .  A
O339        C346   1.266       .  A
C340        O347   1.262       .  A
C340        O341   1.263       .  A
C340        C697   1.436       .  S
C342        O344   1.266       .  A
C342        O348   1.257       .  A
C349        C350   1.535       .  S
C349        C355   1.532       .  S
C349        C353   1.537       .  S
C349        C693   1.467       .  S
C350        H357   1.086       .  S
C350        C351   1.368       .  D
C351        C352   1.538       .  S
C351        C683   1.442       .  S
C352        C356   1.537       .  S
C352        C354   1.533       .  S
C352        H358   1.112       .  S
C353        H359   1.087       .  S
C353        C354   1.360       .  D
C354        C685   1.441   1_556  S
C355        H360   1.086       .  S
C355        C356   1.363       .  D
C356        C689   1.441       .  S
C361        C362   1.536       .  S
C361        C367   1.532       .  S
C361        C365   1.535       .  S
C361        C696   1.467       .  S
C362        H369   1.087       .  S
C362        C363   1.360       .  D
C363        C364   1.533       .  S
C363        C675   1.441   1_556  S
C364        C368   1.537       .  S
C364        C366   1.538       .  S
C364        H370   1.112       .  S
C365        H371   1.086       .  S
C365        C366   1.368       .  D
C366        C832   1.441       .  S
C367        H372   1.086       .  S
C367        C368   1.363       .  D
C368        C682   1.440       .  S
C373        C374   1.536       .  S
C373        C379   1.532       .  S
C373        C377   1.536       .  S
C373        C671   1.468       .  S
C374        H381   1.086       .  S
C374        C375   1.368       .  D
C375        C376   1.537       .  S
C375        C848   1.441       .  S
C376        C380   1.536       .  S
C376        C378   1.533       .  S
C376        H382   1.112       .  S
C377        H383   1.087       .  S
C377        C378   1.360       .  D
C378        C667   1.441   1_556  S
C379        H384   1.086       .  S
C379        C380   1.363       .  D
C380        C679   1.440       .  S
C385        C386   1.536       .  S
C385        C391   1.532       .  S
C385        C389   1.536       .  S
C385        C674   1.468       .  S
C386        H393   1.087       .  S
C386        C387   1.360       .  D
C387        C388   1.533       .  S
C387        C666   1.441   1_556  S
C388        C392   1.537       .  S
C388        C390   1.538       .  S
C388        H394   1.112       .  S
C389        H395   1.086       .  S
C389        C390   1.368       .  D
C390        C700   1.442       .  S
C391        H396   1.086       .  S
C391        C392   1.363       .  D
C392        C692   1.441       .  S
C397        C398   1.535       .  S
C397        C403   1.532       .  S
C397        C401   1.536       .  S
C397        C659   1.468       .  S
C398        H405   1.086       .  S
C398        C399   1.368       .  D
C399        C400   1.538       .  S
C399        C844   1.442       .  S
C400        C404   1.537       .  S
C400        C402   1.533       .  S
C400        H406   1.112       .  S
C401        H407   1.087       .  S
C401        C402   1.360       .  D
C402        C670   1.441       .  S
C403        H408   1.086       .  S
C403        C404   1.363       .  D
C404        C655   1.441       .  S
C409        C410   1.536       .  S
C409        C415   1.532       .  S
C409        C413   1.536       .  S
C409        C662   1.468       .  S
C410        H417   1.087       .  S
C410        C411   1.360       .  D
C411        C412   1.533       .  S
C411        C678   1.441       .  S
C412        C416   1.537       .  S
C412        C414   1.538       .  S
C412        H418   1.112       .  S
C413        H419   1.086       .  S
C413        C414   1.368       .  D
C414        C818   1.442       .  S
C415        H420   1.086       .  S
C415        C416   1.363       .  D
C416        C651   1.441       .  S
C421        C422   1.537       .  S
C421        C427   1.532       .  S
C421        C425   1.535       .  S
C421        C647   1.467       .  S
C422        H429   1.087       .  S
C422        C423   1.360       .  D
C423        C424   1.533       .  S
C423        C663   1.441       .  S
C424        C428   1.537       .  S
C424        C426   1.538       .  S
C424        H430   1.112       .  S
C425        H431   1.086       .  S
C425        C426   1.368       .  D
C426        C698   1.441       .  S
C427        H432   1.086       .  S
C427        C428   1.363       .  D
C428        C658   1.440       .  S
C433        C434   1.535       .  S
C433        C439   1.532       .  S
C433        C437   1.536       .  S
C433        C650   1.467       .  S
C434        H441   1.086       .  S
C434        C435   1.368       .  D
C435        C436   1.537       .  S
C435        C645   1.441       .  S
C436        C440   1.537       .  S
C436        C438   1.533       .  S
C436        H442   1.112       .  S
C437        H443   1.087       .  S
C437        C438   1.360       .  D
C438        C688   1.441       .  S
C439        H444   1.086       .  S
C439        C440   1.363       .  D
C440        C654   1.440       .  S
C445        C446   1.536       .  S
C445        C451   1.532       .  S
C445        C449   1.535       .  S
C445        C644   1.467       .  S
C446        H453   1.087       .  S
C446        C447   1.360       .  D
C447        C448   1.533       .  S
C447        C636   1.440   1_554  S
C448        C452   1.537       .  S
C448        C450   1.538       .  S
C448        H454   1.112       .  S
C449        H455   1.086       .  S
C449        C450   1.368       .  D
C450        C830   1.442       .  S
C451        H456   1.086       .  S
C451        C452   1.363       .  D
C452        C637   1.441       .  S
C457        C458   1.535       .  S
C457        C463   1.532       .  S
C457        C461   1.536       .  S
C457        C629   1.468       .  S
C458        H465   1.086       .  S
C458        C459   1.368       .  D
C459        C460   1.538       .  S
C459        C845   1.442       .  S
C460        C464   1.537       .  S
C460        C462   1.533       .  S
C460        H466   1.112       .  S
C461        H467   1.087       .  S
C461        C462   1.360       .  D
C462        C628   1.440   1_554  S
C463        H468   1.086       .  S
C463        C464   1.363       .  D
C464        C640   1.441       .  S
C469        C470   1.535       .  S
C469        C475   1.532       .  S
C469        C473   1.537       .  S
C469        C641   1.467       .  S
C470        H477   1.086       .  S
C470        C471   1.368       .  D
C471        C472   1.537       .  S
C471        C616   1.441       .  S
C472        C476   1.537       .  S
C472        C474   1.533       .  S
C472        H478   1.112       .  S
C473        H479   1.087       .  S
C473        C474   1.360       .  D
C474        C620   1.441   1_554  S
C475        H480   1.086       .  S
C475        C476   1.363       .  D
C476        C621   1.440       .  S
C481        C482   1.536       .  S
C481        C487   1.532       .  S
C481        C485   1.535       .  S
C481        C632   1.468       .  S
C482        H489   1.087       .  S
C482        C483   1.360       .  D
C483        C484   1.533       .  S
C483        C611   1.441   1_554  S
C484        C488   1.537       .  S
C484        C486   1.538       .  S
C484        H490   1.112       .  S
C485        H491   1.086       .  S
C485        C486   1.368       .  D
C486        C702   1.442       .  S
C487        H492   1.086       .  S
C487        C488   1.363       .  D
C488        C624   1.440       .  S
C493        C494   1.536       .  S
C493        C499   1.532       .  S
C493        C497   1.536       .  S
C493        C603   1.468       .  S
C494        H501   1.086       .  S
C494        C495   1.368       .  D
C495        C496   1.538       .  S
C495        C839   1.442       .  S
C496        C500   1.537       .  S
C496        C498   1.533       .  S
C496        H502   1.112       .  S
C497        H503   1.087       .  S
C497        C498   1.360       .  D
C498        C625   1.440       .  S
C499        H504   1.086       .  S
C499        C500   1.363       .  D
C500        C607   1.440       .  S
C505        C506   1.536       .  S
C505        C511   1.532       .  S
C505        C509   1.536       .  S
C505        C606   1.468       .  S
C506        H513   1.087       .  S
C506        C507   1.360       .  D
C507        C508   1.533       .  S
C507        C633   1.440       .  S
C508        C512   1.537       .  S
C508        C510   1.538       .  S
C508        H514   1.112       .  S
C509        H515   1.086       .  S
C509        C510   1.368       .  D
C510        C826   1.442       .  S
C511        H516   1.086       .  S
C511        C512   1.363       .  D
C512        C602   1.441       .  S
C517        C518   1.535       .  S
C517        C523   1.532       .  S
C517        C521   1.536       .  S
C517        C595   1.467       .  S
C518        H525   1.086       .  S
C518        C519   1.368       .  D
C519        C520   1.538       .  S
C519        C594   1.441       .  S
C520        C524   1.537       .  S
C520        C522   1.533       .  S
C520        H526   1.112       .  S
C521        H527   1.087       .  S
C521        C522   1.360       .  D
C522        C617   1.441       .  S
C523        H528   1.086       .  S
C523        C524   1.363       .  D
C524        C599   1.441       .  S
C529        C530   1.537       .  S
C529        C535   1.533       .  S
C529        C533   1.535       .  S
C529        C598   1.467       .  S
C530        H537   1.087       .  S
C530        C531   1.360       .  D
C531        C532   1.533       .  S
C531        C614   1.441       .  S
C532        C536   1.536       .  S
C532        C534   1.537       .  S
C532        H538   1.112       .  S
C533        H539   1.086       .  S
C533        C534   1.368       .  D
C534        C704   1.441       .  S
C535        H540   1.086       .  S
C535        C536   1.363       .  D
C536        C610   1.440       .  S
In541       O543   2.242       .  S
In541       O544   2.240       .  S
In541       O552   2.232       .  S
In541       O546   2.291       .  S
In541       O548   2.292       .  S
In541       O549   2.241       .  S
In541       O550   2.233       .  S
In541       O553   2.241       .  S
C542        O548   1.266       .  A
C542        O550   1.257       .  A
C542        C573   1.475       .  S
O543        C551   1.262       .  A
O544        C551   1.263       .  A
C545        O552   1.257       .  A
C545        O546   1.266       .  A
C545        C555   1.474       .  S
C547        O549   1.263       .  A
C547        O553   1.262       .  A
C547        C593   1.436       .  S
C551        C765   1.436       .  S
In554       O556   2.242       .  S
In554       O557   2.241       .  S
In554       O565   2.232       .  S
In554       O559   2.292       .  S
In554       O561   2.292       .  S
In554       O562   2.241       .  S
In554       O563   2.232       .  S
In554       O566   2.243       .  S
C555        O561   1.266       .  A
C555        O563   1.257       .  A
O556        C564   1.262       .  A
O557        C564   1.263       .  A
C558        O565   1.257       .  A
C558        O559   1.266       .  A
C558        C584   1.474       .  S
C560        O562   1.263       .  A
C560        O566   1.262       .  A
C560        C788   1.436       .  S
C564        C726   1.436       .  S
In567       O569   2.233   1_556  S
In567       O570   2.292   1_556  S
In567       O578   2.243       .  S
In567       O572   2.241       .  S
In567       O574   2.241   1_556  S
In567       O575   2.292       .  S
In567       O576   2.242   1_556  S
In567       O579   2.233       .  S
C568        O574   1.263       .  A
C568        O576   1.262       .  A
C568        C615   1.436       .  S
O569        C577   1.257       .  A
O570        C577   1.265       .  A
C571        O578   1.262       .  A
C571        O572   1.263       .  A
C571        C684   1.436       .  S
C573        O575   1.266       .  A
C573        O579   1.257       .  A
C577        C581   1.474       .  S
In580       O582   2.242       .  S
In580       O583   2.240       .  S
In580       O591   2.232       .  S
In580       O585   2.291       .  S
In580       O587   2.291       .  S
In580       O588   2.241       .  S
In580       O589   2.232       .  S
In580       O592   2.242       .  S
C581        O587   1.266       .  A
C581        O589   1.257       .  A
O582        C590   1.262       .  A
O583        C590   1.263       .  A
C584        O591   1.257       .  A
C584        O585   1.266       .  A
C586        O588   1.263       .  A
C586        O592   1.262       .  A
C586        C646   1.436       .  S
C590        C709   1.436       .  S
C593        C594   1.206       .  T
C595        C596   1.205       .  T
C596        C597   1.410   1_655  S
C597        C598   1.205       .  T
C599        C600   1.205       .  T
C600        C601   1.411       .  S
C601        C602   1.205       .  T
C603        C604   1.205       .  T
C604        C605   1.410   1_455  S
C605        C606   1.205       .  T
C607        C608   1.205       .  T
C608        C609   1.411       .  S
C609        C610   1.205       .  T
C611        C612   1.205       .  T
C612        C613   1.411       .  S
C613        C614   1.205       .  T
C615        C616   1.206       .  T
C617        C618   1.205       .  T
C618        C619   1.412       .  S
C619        C620   1.205       .  T
C621        C622   1.205       .  T
C622        C623   1.411   1_655  S
C623        C624   1.205       .  T
C625        C626   1.205       .  T
C626        C627   1.411       .  S
C627        C628   1.205       .  T
C629        C630   1.205       .  T
C630        C631   1.410       .  S
C631        C632   1.205       .  T
C633        C634   1.205       .  T
C634        C635   1.411       .  S
C635        C636   1.205       .  T
C637        C638   1.205       .  T
C638        C639   1.411   1_655  S
C639        C640   1.205       .  T
C641        C642   1.205       .  T
C642        C643   1.410       .  S
C643        C644   1.205       .  T
C645        C646   1.206       .  T
C647        C648   1.205       .  T
C648        C649   1.410   1_455  S
C649        C650   1.205       .  T
C651        C652   1.205       .  T
C652        C653   1.411       .  S
C653        C654   1.205       .  T
C655        C656   1.205       .  T
C656        C657   1.411       .  S
C657        C658   1.205       .  T
C659        C660   1.205       .  T
C660        C661   1.410   1_455  S
C661        C662   1.205       .  T
C663        C664   1.205       .  T
C664        C665   1.411       .  S
C665        C666   1.205       .  T
C667        C668   1.205       .  T
C668        C669   1.411       .  S
C669        C670   1.205       .  T
C671        C672   1.205       .  T
C672        C673   1.410       .  S
C673        C674   1.205       .  T
C675        C676   1.205       .  T
C676        C677   1.411       .  S
C677        C678   1.205       .  T
C679        C680   1.205       .  T
C680        C681   1.410   1_455  S
C681        C682   1.205       .  T
C683        C684   1.206       .  T
C685        C686   1.205       .  T
C686        C687   1.412       .  S
C687        C688   1.205       .  T
C689        C690   1.205       .  T
C690        C691   1.411   1_655  S
C691        C692   1.205       .  T
C693        C694   1.205       .  T
C694        C695   1.410       .  S
C695        C696   1.205       .  T
C697        C698   1.206       .  T
C699        C700   1.206       .  T
C701        C702   1.206       .  T
C703        C704   1.206       .  T
C705        C706   1.206       .  T
C706        C707   1.411       .  S
C707        C708   1.206       .  T
C709        C710   1.206       .  T
C711        C712   1.205       .  T
C712        C713   1.411       .  S
C713        C714   1.205       .  T
C715        C716   1.206       .  T
C717        C718   1.205       .  T
C718        C719   1.411       .  S
C719        C720   1.205       .  T
C721        C722   1.205       .  T
C722        C723   1.409       .  S
C723        C724   1.205       .  T
C725        C726   1.206       .  T
C727        C728   1.205       .  T
C728        C729   1.412       .  S
C729        C730   1.205       .  T
C731        C732   1.205       .  T
C732        C733   1.411       .  S
C733        C734   1.205       .  T
C735        C736   1.205       .  T
C736        C737   1.410       .  S
C737        C738   1.205       .  T
C739        C740   1.206       .  T
C741        C742   1.205       .  T
C742        C743   1.412       .  S
C743        C744   1.205       .  T
C745        C746   1.205       .  T
C746        C747   1.411       .  S
C747        C748   1.205       .  T
C749        C750   1.205       .  T
C750        C751   1.411       .  S
C751        C752   1.205       .  T
C753        C754   1.205       .  T
C754        C755   1.411       .  S
C755        C756   1.205       .  T
C757        C758   1.205       .  T
C758        C759   1.410       .  S
C759        C760   1.205       .  T
C761        C762   1.205       .  T
C762        C763   1.410       .  S
C763        C764   1.205       .  T
C765        C766   1.206       .  T
C767        C768   1.205       .  T
C768        C769   1.411       .  S
C769        C770   1.205       .  T
C771        C772   1.206       .  T
C773        C774   1.205       .  T
C774        C775   1.411       .  S
C775        C776   1.205       .  T
C777        C778   1.205       .  T
C778        C779   1.410       .  S
C779        C780   1.205       .  T
C781        C782   1.206       .  T
C783        C784   1.205       .  T
C784        C785   1.411       .  S
C785        C786   1.205       .  T
C787        C788   1.206       .  T
C789        C790   1.205       .  T
C790        C791   1.411       .  S
C791        C792   1.205       .  T
C793        C794   1.205       .  T
C794        C795   1.411       .  S
C795        C796   1.205       .  T
C797        C798   1.205       .  T
C798        C799   1.411       .  S
C799        C800   1.205       .  T
C801        C802   1.205       .  T
C802        C803   1.410       .  S
C803        C804   1.205       .  T
C805        C806   1.205       .  T
C806        C807   1.411       .  S
C807        C808   1.205       .  T
C809        C810   1.205       .  T
C810        C811   1.411       .  S
C811        C812   1.205       .  T
C813        C814   1.205       .  T
C814        C815   1.410       .  S
C815        C816   1.205       .  T
C817        C818   1.206       .  T
C819        C820   1.206       .  T
C821        C822   1.206       .  T
C823        C824   1.206       .  T
C825        C826   1.206       .  T
C827        C828   1.206       .  T
C829        C830   1.206       .  T
C831        C832   1.206       .  T
C833        C834   1.206       .  T
C835        C836   1.206       .  T
C837        C838   1.206       .  T
C839        C840   1.206       .  T
C841        C842   1.206       .  T
C843        C844   1.206       .  T
C845        C846   1.206       .  T
C847        C848   1.206       .  T
