geometry optimzed in LAMMPS
_audit_creation_date              2020-11-30 
_audit_creation_method            'lammps2cif' 
_symmetry_space_group_name_H-M    'P1' 
_symmetry_Int_Tables_number       1 
_symmetry_cell_setting            triclinic 
loop_ 
_symmetry_equiv_pos_as_xyz 
  x,y,z 
_cell_length_a                    52.74342965 
_cell_length_b                    52.519274778922366 
_cell_length_c                    35.417353440864524 
_cell_angle_alpha                 89.45030821439609 
_cell_angle_beta                  89.95151249499155 
_cell_angle_gamma                 89.70679910945685 
loop_ 
_atom_site_label 
_atom_site_type_symbol 
_atom_site_fract_x 
_atom_site_fract_y 
_atom_site_fract_z 
_atom_site_charge 
O1          O  0.20556748  0.43838038  0.84145345    -0.57200
C2          C  0.18716930  0.40089979  0.75468351     0.75400
O3          O  0.23410442  0.38371596  0.86815712    -0.58300
C4          C  0.19673117  0.44060032  0.87444077     0.75400
C5          C  0.15765860  0.35401551  0.85191780     0.77800
Cd6        Cd  0.19429557  0.39270637  0.83397304     1.37500
O7          O  0.17490808  0.41381258  0.77868486    -0.57200
O8          O  0.15106694  0.37616131  0.84149958    -0.56000
C9          C  0.24573163  0.37699068  0.83851715     0.77800
O10         O  0.18101049  0.35037816  0.85793990    -0.58400
O11         O  0.20240459  0.38432921  0.76733012    -0.56800
O12         O  0.18547301  0.42127610  0.88787475    -0.56800
O13         O  0.23282500  0.37467454  0.80881958    -0.56000
O14         O  0.34328936  0.41821008  0.77634609    -0.57200
C15         C  0.31350613  0.43506957  0.87653634     0.75400
O16         O  0.28672576  0.38029670  0.86529559    -0.58300
C17         C  0.33370057  0.40570455  0.74947679     0.75400
C18         C  0.36510079  0.35805971  0.84253249     0.77800
Cd19       Cd  0.32379868  0.39247484  0.82784097     1.37500
O20         O  0.30944521  0.43618713  0.84132739    -0.57200
O21         O  0.36852320  0.38181186  0.84007824    -0.56000
C22         C  0.27323571  0.37614042  0.83659525     0.77800
O23         O  0.34241166  0.35038238  0.84175841    -0.58400
O24         O  0.32442578  0.41512484  0.88880932    -0.56800
O25         O  0.31881929  0.38786217  0.75862183    -0.56800
O26         O  0.28433307  0.37503270  0.80496429    -0.56000
O27         O  0.32403434  0.07149919  0.68817510    -0.57200
C28         C  0.29945602  0.04792085  0.58987361     0.75400
O29         O  0.38776844  0.06831136  0.61478979    -0.58300
C30         C  0.33816600  0.06053261  0.71238010     0.75400
C31         C  0.36330112  0.50171058  0.62878872     0.77800
Cd32       Cd  0.34572094  0.05288340  0.63348041     1.37500
O33         O  0.30089325  0.04014947  0.62367396    -0.57200
O34         O  0.35958260  0.01289425  0.65976393    -0.56000
C35         C  0.38271726  0.09157788  0.61992974     0.77800
O36         O  0.36080582  0.01489961  0.59885915    -0.58400
O37         O  0.31859558  0.05971965  0.57716511    -0.56800
O38         O  0.35547711  0.04618478  0.70004761    -0.56800
O39         O  0.35986281  0.09726511  0.62674663    -0.56000
O40         O  0.32929903  0.39987102  0.68261210    -0.57200
C41         C  0.30975729  0.42987388  0.58423688     0.75400
O42         O  0.36422289  0.46163130  0.59823117    -0.58300
C43         C  0.33998751  0.41123599  0.70970215     0.75400
C44         C  0.39137093  0.38301404  0.61642143     0.77800
Cd45       Cd  0.35373025  0.42189265  0.63187328     1.37500
O46         O  0.30872866  0.43147621  0.61978864    -0.57200
O47         O  0.36817728  0.37795415  0.62109033    -0.56000
C48         C  0.36595335  0.47414940  0.62842489     0.77800
O49         O  0.39725279  0.40634388  0.61588384    -0.58400
O50         O  0.33064727  0.42239305  0.57050771    -0.56800
O51         O  0.35678455  0.42734805  0.70089978    -0.56800
O52         O  0.36652233  0.46171335  0.65914994    -0.56000
O53         O  0.21979786  0.42474266  0.62541279    -0.57200
C54         C  0.18374556  0.40468780  0.71414110     0.75400
O55         O  0.16311632  0.44970170  0.59709482    -0.58300
C56         C  0.22150037  0.41680286  0.59192836     0.75400
C57         C  0.13790498  0.37279790  0.62152618     0.77800
Cd58       Cd  0.17490510  0.41161277  0.63494662     1.37500
O59         O  0.19534586  0.39120378  0.69011490    -0.57200
O60         O  0.16094156  0.36740981  0.62744624    -0.56000
C61         C  0.15684980  0.46235401  0.62595841     0.77800
O62         O  0.13231799  0.39611044  0.61787699    -0.58400
O63         O  0.16877780  0.42151819  0.70153184    -0.56800
O64         O  0.20255893  0.40471851  0.57953226    -0.56800
O65         O  0.15613784  0.45059706  0.65716984    -0.56000
O66         O  0.19103744  0.06402276  0.68104407    -0.57200
C67         C  0.21108180  0.03504032  0.58327479     0.75400
O68         O  0.15831322  0.00297301  0.59547066    -0.58300
C69         C  0.18051186  0.05228438  0.70825811     0.75400
C70         C  0.12873995  0.08128068  0.61491837     0.77800
Cd71       Cd  0.16690412  0.04242562  0.63036841     1.37500
O72         O  0.21190330  0.03251133  0.61879776    -0.57200
O73         O  0.15204411  0.08664690  0.61681223    -0.56000
C74         C  0.15451119  0.48997596  0.62510524     0.77800
O75         O  0.12320207  0.05789217  0.61688338    -0.58400
O76         O  0.19036780  0.04314940  0.56951271    -0.56800
O77         O  0.16417816  0.03579416  0.69961228    -0.56800
O78         O  0.15215029  0.00230942  0.65576858    -0.56000
O79         O  0.17734802  0.04506499  0.77515960    -0.57200
C80         C  0.20581402  0.02961367  0.87602582     0.75400
O81         O  0.23352708  0.08463709  0.86121839    -0.58300
C82         C  0.18637742  0.05802567  0.74792373     0.75400
C83         C  0.15458289  0.10675467  0.83945528     0.77800
Cd84       Cd  0.19587829  0.07189124  0.82561885     1.37500
O85         O  0.20768873  0.02762843  0.84054119    -0.57200
O86         O  0.15090994  0.08302754  0.83776613    -0.56000
C87         C  0.24705272  0.08753613  0.83208163     0.77800
O88         O  0.17736130  0.11411573  0.83792290    -0.58400
O89         O  0.19718143  0.05050928  0.88822848    -0.56800
O90         O  0.20025661  0.07666350  0.75653031    -0.56800
O91         O  0.23590334  0.08743676  0.80047457    -0.56000
O92         O  0.31515128  0.02641202  0.84048510    -0.57200
C93         C  0.33469688  0.06420714  0.75282818     0.75400
O94         O  0.28627101  0.08168193  0.86449325    -0.58300
C95         C  0.32326170  0.02420071  0.87389907     0.75400
C96         C  0.36229302  0.11172904  0.84917258     0.77800
Cd97       Cd  0.32647218  0.07208876  0.83174096     1.37500
O98         O  0.34788596  0.05230238  0.77723780    -0.57200
O99         O  0.36934659  0.08932793  0.84147160    -0.56000
C100        C  0.27460924  0.08691488  0.83407677     0.77800
O101        O  0.33869966  0.11537609  0.85256625    -0.58400
O102        O  0.31822787  0.07955367  0.76495597    -0.56800
O103        O  0.33440628  0.04347750  0.88713462    -0.56800
O104        O  0.28758966  0.08815074  0.80421265    -0.56000
C105        C  0.21108519  0.48191632  0.95867042     0.87100
C106        C  0.20824520  0.00818957  0.93943139    -0.53100
C107        C  0.21294034  0.00834613  0.90152732     0.10000
C108        C  0.22290328  0.48324852  0.88653775     0.21000
C109        C  0.19436664  0.46424616  0.93517090    -0.53800
C110        C  0.20140872  0.46359834  0.89733239     0.10100
C111        C  0.23710415  0.47103067  0.94682464    -0.53400
C112        C  0.24612523  0.47669268  0.91188840     0.10700
H113        H  0.20093619  0.02474786  0.95403575     0.15200
H114        H  0.22762399  0.48349847  0.85598066     0.01000
H115        H  0.18130645  0.45075198  0.94787031     0.15500
H116        H  0.24837103  0.46034680  0.96608826     0.15300
C117        C  0.21107421  0.48318590  0.00399122     0.87100
C118        C  0.20797758  0.45681447  0.02313871    -0.53100
C119        C  0.21269650  0.45636128  0.06104494     0.10000
C120        C  0.22288189  0.48152053  0.07607222     0.21000
C121        C  0.19430099  0.00088620  0.02768061    -0.53800
C122        C  0.20124916  0.00130679  0.06556915     0.10100
C123        C  0.23706996  0.49384708  0.01581403    -0.53400
C124        C  0.24607195  0.48795754  0.05067403     0.10700
H125        H  0.20078690  0.44036485  0.00834423     0.15200
H126        H  0.22764841  0.48114638  0.10659863     0.01000
H127        H  0.18123743  0.01453684  0.01507085     0.15500
H128        H  0.24842794  0.50431804  0.99647868     0.15300
C129        C  0.30784042  0.48238719  0.95856436     0.87100
C130        C  0.31082901  0.45617849  0.93962428    -0.53100
C131        C  0.30630110  0.45624780  0.90165935     0.10000
C132        C  0.29627642  0.48171902  0.88650615     0.21000
C133        C  0.32485057  0.00019797  0.93509498    -0.53800
C134        C  0.31787129  0.00127764  0.89729485     0.10100
C135        C  0.28198103  0.49359818  0.94671387    -0.53400
C136        C  0.27305162  0.48841793  0.91173338     0.10700
H137        H  0.31797287  0.43949777  0.95456062     0.15200
H138        H  0.29164791  0.48178974  0.85593282     0.01000
H139        H  0.33816168  0.01331884  0.94766596     0.15500
H140        H  0.27629798  0.51175650  0.95820741     0.15300
C141        C  0.30774987  0.48103103  0.00369706     0.87100
C142        C  0.31112836  0.00729759  0.02228818    -0.53100
C143        C  0.30655379  0.00766620  0.06018578     0.10000
C144        C  0.29609094  0.48237233  0.07571792     0.21000
C145        C  0.32470248  0.46331950  0.02752455    -0.53800
C146        C  0.31771745  0.46264588  0.06537709     0.10100
C147        C  0.28178909  0.47028184  0.01567809    -0.53400
C148        C  0.27289299  0.47578194  0.05066692     0.10700
H149        H  0.31837893  0.02374812  0.00707395     0.15200
H150        H  0.29143337  0.48263475  0.10628771     0.01000
H151        H  0.33784055  0.44981769  0.01508985     0.15500
H152        H  0.27604806  0.45213530  0.00441275     0.15300
C153        C  0.25968622  0.43428088  0.50516281     0.87100
C154        C  0.28643199  0.43169537  0.52260409    -0.53100
C155        C  0.28749297  0.43614378  0.56045246     0.10000
C156        C  0.26235037  0.44555583  0.57698273     0.21000
C157        C  0.24321527  0.41674658  0.52950596    -0.53800
C158        C  0.24329639  0.42337237  0.56732499     0.10100
C159        C  0.24855428  0.46016139  0.51736819    -0.53400
C160        C  0.25445954  0.46896154  0.55216248     0.10700
H161        H  0.30274371  0.42509581  0.50669392     0.15200
H162        H  0.26310712  0.45002574  0.60753438     0.01000
H163        H  0.23007407  0.40318532  0.51756403     0.15500
H164        H  0.23063993  0.46650648  0.50570019     0.15300
C165        C  0.25978769  0.43421372  0.46016098     0.87100
C166        C  0.23300829  0.43190883  0.44268862    -0.53100
C167        C  0.23204987  0.43623418  0.40461420     0.10000
C168        C  0.25715112  0.44543195  0.38790468     0.21000
C169        C  0.27620228  0.41644019  0.43635786    -0.53800
C170        C  0.27603509  0.42295150  0.39830414     0.10100
C171        C  0.27105542  0.45980813  0.44704648    -0.53400
C172        C  0.26494759  0.46872889  0.41212782     0.10700
H173        H  0.21670513  0.42533252  0.45867237     0.15200
H174        H  0.25649645  0.44992937  0.35722814     0.01000
H175        H  0.28923209  0.40262785  0.44866828     0.15500
H176        H  0.28153996  0.47135246  0.46590472     0.15300
C177        C  0.26088440  0.03084036  0.50378158     0.87100
C178        C  0.23426962  0.03361574  0.52154416    -0.53100
C179        C  0.23334334  0.02903503  0.55948850     0.10000
C180        C  0.25849165  0.01944089  0.57593884     0.21000
C181        C  0.27764933  0.04818194  0.52747649    -0.53800
C182        C  0.27765698  0.04149167  0.56546914     0.10100
C183        C  0.27186127  0.00483321  0.51649876    -0.53400
C184        C  0.26612798  0.99602769  0.55164920     0.10700
H185        H  0.21790122  0.04027758  0.50567013     0.15200
H186        H  0.25784506  0.01492654  0.60661073     0.01000
H187        H  0.29084956  0.06165950  0.51505169     0.15500
H188        H  0.28971391  0.99843711  0.50481707     0.15300
C189        C  0.26043902  0.03095097  0.45874028     0.87100
C190        C  0.28709725  0.03291683  0.44073060    -0.53100
C191        C  0.28777935  0.02848462  0.40280710     0.10000
C192        C  0.26237296  0.01968137  0.38675316     0.21000
C193        C  0.24402306  0.04889472  0.43469922    -0.53800
C194        C  0.24363974  0.04228950  0.39685099     0.10100
C195        C  0.24877755  0.00546879  0.44658918    -0.53400
C196        C  0.25451690  0.99647400  0.41178825     0.10700
H197        H  0.30363557  0.03908492  0.45631999     0.15200
H198        H  0.26278919  0.01520055  0.35618936     0.01000
H199        H  0.23109105  0.06267672  0.44695390     0.15500
H200        H  0.23840040  0.99399356  0.46605502     0.15300
O201        O  0.34368316  0.04541342  0.18452269    -0.57200
C202        C  0.31373412  0.02902060  0.08470406     0.75400
O203        O  0.28588229  0.08514071  0.09848444    -0.58300
C204        C  0.33409701  0.05794572  0.21151968     0.75400
C205        C  0.36474211  0.10592515  0.11781969     0.77800
Cd206      Cd  0.32388158  0.07146242  0.13329004     1.37500
O207        O  0.31111764  0.02759395  0.12015863    -0.57200
O208        O  0.36856608  0.08229031  0.12190563    -0.56000
C209        C  0.27282248  0.08758337  0.12816138     0.77800
O210        O  0.34189975  0.11339862  0.11742371    -0.58400
O211        O  0.32317143  0.04941242  0.07170007    -0.56800
O212        O  0.31940344  0.07612071  0.20250580    -0.56800
O213        O  0.28446721  0.08705739  0.15935462    -0.56000
O214        O  0.20493082  0.02598396  0.12211335    -0.57200
C215        C  0.18517121  0.06466059  0.21055772     0.75400
O216        O  0.23295082  0.08349949  0.09710921    -0.58300
C217        C  0.19624511  0.02412116  0.08902364     0.75400
C218        C  0.15719228  0.11136397  0.11468327     0.77800
Cd219      Cd  0.19358103  0.07177546  0.13109626     1.37500
O220        O  0.17326829  0.05145809  0.18663990    -0.57200
O221        O  0.15058769  0.08923730  0.12485768    -0.56000
C222        C  0.24527658  0.08676079  0.12737320     0.77800
O223        O  0.18050260  0.11466029  0.10800630    -0.58400
O224        O  0.20059558  0.08084769  0.19772834    -0.56800
O225        O  0.18484999  0.04363285  0.07611487    -0.56800
O226        O  0.23305576  0.08573704  0.15794692    -0.56000
O227        O  0.32812313  0.06209088  0.27852281    -0.57200
C228        C  0.30993595  0.03403454  0.37844114     0.75400
O229        O  0.36503653  0.00086159  0.36338608    -0.58300
C230        C  0.34012571  0.05206356  0.25132857     0.75400
C231        C  0.39157930  0.07869105  0.34386637     0.77800
Cd232      Cd  0.35343093  0.04064934  0.32935385     1.37500
O233        O  0.30869237  0.03158370  0.34302074    -0.57200
O234        O  0.36814934  0.08388991  0.34324061    -0.56000
C235        C  0.36411557  0.48794283  0.33332017     0.77800
O236        O  0.39761761  0.05544200  0.34080948    -0.58400
O237        O  0.33089408  0.04170255  0.39142096    -0.56800
O238        O  0.35796451  0.03695792  0.26009503    -0.56800
O239        O  0.36295308  0.00004603  0.30250496    -0.56000
O240        O  0.29868148  0.42323455  0.33961251    -0.57200
C241        C  0.33661968  0.40207121  0.25058552     0.75400
O242        O  0.36016484  0.44714872  0.36362427    -0.58300
C243        C  0.29732901  0.41557191  0.37344837     0.75400
C244        C  0.38109426  0.37107530  0.34330652     0.77800
Cd245      Cd  0.34334496  0.40954387  0.32952339     1.37500
O246        O  0.32413352  0.38904969  0.27448339    -0.57200
O247        O  0.35838127  0.36512127  0.33638665    -0.56000
C248        C  0.36090436  0.46045643  0.33357045     0.77800
O249        O  0.38566076  0.39445968  0.34781228    -0.58400
O250        O  0.35173007  0.41842052  0.26326360    -0.56800
O251        O  0.31622537  0.40308776  0.38581472    -0.56800
O252        O  0.35570054  0.44948848  0.30306178    -0.56000
O253        O  0.17786762  0.41933075  0.18753693    -0.57200
C254        C  0.20593570  0.43484384  0.08628872     0.75400
O255        O  0.23309746  0.37623971  0.10270386    -0.58300
C256        C  0.18592484  0.40550132  0.21460459     0.75400
C257        C  0.15399541  0.35867374  0.12247860     0.77800
Cd258      Cd  0.19568516  0.39237776  0.13662030     1.37500
O259        O  0.20860277  0.43630462  0.12168953    -0.57200
O260        O  0.15049177  0.38243147  0.12503219    -0.56000
C261        C  0.24667194  0.37576228  0.13208297     0.77800
O262        O  0.17672984  0.35089000  0.12312979    -0.58400
O263        O  0.19674783  0.41430069  0.07403678    -0.56800
O264        O  0.19864542  0.38595803  0.20574914    -0.56800
O265        O  0.23556633  0.37843117  0.16344468    -0.56000
O266        O  0.31382381  0.43730023  0.12189426    -0.57200
C267        C  0.33369603  0.39857345  0.21008704     0.75400
O268        O  0.28611467  0.37899831  0.09926400    -0.58300
C269        C  0.32268364  0.43960289  0.08890716     0.75400
C270        C  0.36278680  0.35267558  0.11533846     0.77800
Cd271      Cd  0.32584710  0.39161995  0.13126771     1.37500
O272        O  0.34523271  0.41237236  0.18609212    -0.57200
O273        O  0.36924642  0.37498672  0.12416764    -0.56000
C274        C  0.27420491  0.37644912  0.13019317     0.77800
O275        O  0.33941841  0.34895206  0.10988556    -0.58400
O276        O  0.31929178  0.38157450  0.19751345    -0.56800
O277        O  0.33426390  0.42031977  0.07613627    -0.56800
O278        O  0.28683692  0.37817169  0.16022860    -0.56000
O279        O  0.21971303  0.04198931  0.33908394    -0.57200
C280        C  0.18151295  0.06140856  0.25123679     0.75400
O281        O  0.16023986  0.01551398  0.36679632    -0.58300
C282        C  0.22136814  0.04889994  0.37305208     0.75400
C283        C  0.13722946  0.09359798  0.34469680     0.77800
Cd284      Cd  0.17414141  0.05414909  0.33083879     1.37500
O285        O  0.19419653  0.07396707  0.27502529    -0.57200
O286        O  0.16007041  0.09869016  0.33711027    -0.56000
C287        C  0.15734482  0.50274968  0.33713709     0.77800
O288        O  0.13189059  0.07038429  0.34988856    -0.58400
O289        O  0.16557856  0.04577222  0.26422613    -0.56800
O290        O  0.20201582  0.05995360  0.38654232    -0.56800
O291        O  0.15937557  0.01451232  0.30592645    -0.56000
O292        O  0.18993481  0.39890044  0.28157674    -0.57200
C293        C  0.21015947  0.42972308  0.38055369     0.75400
O294        O  0.15684965  0.46184457  0.36705141    -0.58300
C295        C  0.18035226  0.41150321  0.25432508     0.75400
C296        C  0.12786248  0.38485050  0.34631104     0.77800
Cd297      Cd  0.16684028  0.42242825  0.33205960     1.37500
O298        O  0.21158416  0.43135032  0.34495783    -0.57200
O299        O  0.15112698  0.37890425  0.34684146    -0.56000
C300        C  0.15502631  0.47509192  0.33716711     0.77800
O301        O  0.12267975  0.40827063  0.34232153    -0.58400
O302        O  0.18925470  0.42207738  0.39400112    -0.56800
O303        O  0.16528159  0.42932341  0.26294291    -0.56800
O304        O  0.15443432  0.46330242  0.30622399    -0.56000
O305        O  0.47072538  0.29094568  0.83904009    -0.57200
C306        C  0.43559367  0.31188410  0.74876274     0.75400
O307        O  0.41365483  0.26610642  0.86462549    -0.58300
C308        C  0.47222857  0.29975107  0.87202761     0.75400
C309        C  0.38639466  0.34014137  0.84245418     0.77800
Cd310      Cd  0.42620660  0.30416766  0.82768688     1.37500
O311        O  0.44609659  0.32587773  0.77310181    -0.57200
O312        O  0.40884775  0.34742818  0.83627738    -0.56000
C313        C  0.40875637  0.25325879  0.83544750     0.77800
O314        O  0.38288956  0.31644400  0.84526210    -0.58400
O315        O  0.42117859  0.29458824  0.76095188    -0.56800
O316        O  0.45333188  0.31254636  0.88337930    -0.56800
O317        O  0.41001082  0.26462041  0.80394887    -0.56000
O318        O  0.46139783  0.18041803  0.84492100    -0.57200
C319        C  0.42743468  0.16319798  0.75667244     0.75400
O320        O  0.37342066  0.15585065  0.85018766    -0.58300
C321        C  0.46011832  0.18081253  0.88058616     0.75400
C322        C  0.40531699  0.22579672  0.83684040     0.77800
Cd323      Cd  0.41602960  0.17310502  0.83453527     1.37500
O324        O  0.44068796  0.15350625  0.78307974    -0.57200
O325        O  0.40380139  0.21335900  0.80656864    -0.56000
C326        C  0.38049502  0.13276661  0.85001476     0.77800
O327        O  0.40701436  0.21323059  0.86737877    -0.58400
O328        O  0.40922143  0.17751722  0.76624299    -0.56800
O329        O  0.43891266  0.17522980  0.89520184    -0.56800
O330        O  0.40402478  0.12865606  0.84693355    -0.56000
O331        O  0.08054117  0.31173851  0.78399254    -0.57200
C332        C  0.06023118  0.28528943  0.88195266     0.75400
O333        O  0.11266422  0.25156581  0.86955296    -0.58300
C334        C  0.09396700  0.30154394  0.75846283     0.75400
C335        C  0.13942824  0.33308400  0.85267169     0.77800
Cd336      Cd  0.10474903  0.29250273  0.83685820     1.37500
O337        O  0.05936216  0.28536283  0.84625642    -0.57200
O338        O  0.11612674  0.33714290  0.84691220    -0.56000
C339        C  0.11626288  0.23989339  0.83891926     0.77800
O340        O  0.14645410  0.31004163  0.85523901    -0.58400
O341        O  0.08132087  0.29065744  0.89686781    -0.56800
O342        O  0.11206131  0.28736331  0.76920982    -0.56800
O343        O  0.11938732  0.25321542  0.80942314    -0.56000
O344        O  0.05080364  0.17885511  0.83916869    -0.57200
C345        C  0.08362792  0.15456399  0.74731688     0.75400
O346        O  0.10852782  0.19848012  0.86462795    -0.58300
C347        C  0.04808183  0.16797114  0.87086677     0.75400
C348        C  0.13352599  0.12508079  0.83971106     0.77800
Cd349      Cd  0.09412709  0.16232487  0.82606120     1.37500
O350        O  0.07181212  0.14242467  0.77285651    -0.57200
O351        O  0.11076305  0.11831856  0.83501744    -0.56000
C352        C  0.11275144  0.21251225  0.83604342     0.77800
O353        O  0.13753890  0.14870257  0.84162276    -0.58400
O354        O  0.09982611  0.17051870  0.75808382    -0.56800
O355        O  0.06572498  0.15285456  0.88080855    -0.56800
O356        O  0.11052812  0.20251656  0.80392483    -0.56000
O357        O  0.09026383  0.16251323  0.68132237    -0.57200
C358        C  0.05911609  0.18450077  0.58365876     0.75400
O359        O  0.08568503  0.09563155  0.61468713    -0.58300
C360        C  0.07906197  0.15000624  0.70721050     0.75400
C361        C  0.01894629  0.12359293  0.63008231     0.77800
Cd362      Cd  0.06987009  0.13896208  0.62928629     1.37500
O363        O  0.05949795  0.18505307  0.61934274    -0.57200
O364        O  0.03212274  0.12371973  0.65979159    -0.56000
C365        C  0.10896290  0.10120116  0.61426546     0.77800
O366        O  0.03034925  0.12638259  0.59886464    -0.58400
O367        O  0.06533066  0.16347414  0.56890985    -0.56800
O368        O  0.06383263  0.13294937  0.69694532    -0.56800
O369        O  0.11425051  0.12462043  0.61655395    -0.56000
O370        O  0.46084134  0.18878021  0.62504459    -0.57200
C371        C  0.43269900  0.15786696  0.71684531     0.75400
O372        O  0.42588773  0.10401942  0.62147517    -0.58300
C373        C  0.45492459  0.18835085  0.59048642     0.75400
C374        C  0.49158775  0.12508909  0.63263187     0.77800
Cd375      Cd  0.44262044  0.14567844  0.63909802     1.37500
O376        O  0.42070130  0.16891320  0.69027093    -0.57200
O377        O  0.48101920  0.12756689  0.66445250    -0.56000
C378        C  0.40281095  0.11056538  0.62198075     0.77800
O379        O  0.47805446  0.12817021  0.60349510    -0.58400
O380        O  0.44934610  0.14172616  0.70746802    -0.56800
O381        O  0.44159792  0.16974087  0.58004319    -0.56800
O382        O  0.39802825  0.13382443  0.62778089    -0.56000
O383        O  0.45291251  0.27693062  0.62049205    -0.57200
C384        C  0.43970517  0.31546834  0.70832075     0.75400
O385        O  0.48906016  0.33002016  0.59634013    -0.58300
C386        C  0.44820394  0.27680267  0.58548406     0.75400
C387        C  0.41053346  0.36264072  0.61543521     0.77800
Cd388      Cd  0.44787877  0.32333324  0.62930590     1.37500
O389        O  0.42963756  0.30098801  0.68416592    -0.57200
O390        O  0.40455827  0.33987062  0.62282895    -0.56000
C391        C  0.50113173  0.33286406  0.62690442     0.77800
O392        O  0.43386954  0.36703742  0.61028261    -0.58400
O393        O  0.45342913  0.33330774  0.69592951    -0.56800
O394        O  0.44128581  0.29784762  0.57091054    -0.56800
O395        O  0.48822426  0.33450766  0.65675376    -0.56000
O396        O  0.10060431  0.29357260  0.69297994    -0.57200
C397        C  0.07725567  0.27034191  0.59567210     0.75400
O398        O  0.04236439  0.32622771  0.60072235    -0.58300
C399        C  0.08908134  0.30601873  0.71825687     0.75400
C400        C  0.11840760  0.35313449  0.62275329     0.77800
Cd401      Cd  0.08033793  0.31585046  0.63934516     1.37500
O402        O  0.06874686  0.27114632  0.62901125    -0.57200
O403        O  0.12400977  0.33027878  0.63051364    -0.56000
C404        C  0.02870442  0.33106095  0.62917537     0.77800
O405        O  0.09510380  0.35847856  0.61948217    -0.58400
O406        O  0.08928566  0.28966556  0.58397677    -0.56800
O407        O  0.07334104  0.32267472  0.70715543    -0.56800
O408        O  0.03959423  0.33147685  0.66092627    -0.56000
C409        C  0.00946950  0.28144718  0.95959446     0.87100
C410        C  0.03629754  0.28366766  0.94262648    -0.53100
C411        C  0.03763373  0.27947788  0.90480267     0.10000
C412        C  0.01266442  0.27073713  0.88750985     0.21000
C413        C  0.49326918  0.29946772  0.93519387    -0.53800
C414        C  0.49371992  0.29313260  0.89718992     0.10100
C415        C  0.99816626  0.25594156  0.94664017    -0.53400
C416        C  0.00442413  0.24736295  0.91174235     0.10700
H417        H  0.05254852  0.28981092  0.95889591     0.15200
H418        H  0.01376212  0.26647711  0.85690436     0.01000
H419        H  0.47998179  0.31304291  0.94711714     0.15500
H420        H  0.98780215  0.24413300  0.96568140     0.15300
C421        C  0.00986467  0.28095995  0.00460607     0.87100
C422        C  0.48323881  0.28308983  0.02228477    -0.53100
C423        C  0.48240001  0.27802140  0.06008559     0.10000
C424        C  0.00761133  0.26860786  0.07641837     0.21000
C425        C  0.02640467  0.29825806  0.02895230    -0.53800
C426        C  0.02644313  0.29106913  0.06677874     0.10100
C427        C  0.02120753  0.25497859  0.01661703    -0.53400
C428        C  0.01556054  0.24567826  0.05147839     0.10700
H429        H  0.46683656  0.28985153  0.00656976     0.15200
H430        H  0.00693762  0.26362978  0.10693810     0.01000
H431        H  0.03936304  0.31217179  0.01704378     0.15500
H432        H  0.03921937  0.24904731  0.00493138     0.15300
C433        C  0.01041636  0.18474166  0.95868997     0.87100
C434        C  0.48366991  0.18240677  0.94154779    -0.53100
C435        C  0.48240770  0.18717268  0.90372845     0.10000
C436        C  0.00732610  0.19677616  0.88675370     0.21000
C437        C  0.02700050  0.16744432  0.93414816    -0.53800
C438        C  0.02664071  0.17448628  0.89623799     0.10100
C439        C  0.02133879  0.21062553  0.94621416    -0.53400
C440        C  0.01508793  0.21980853  0.91150541     0.10700
H441        H  0.46750448  0.17556586  0.95760701     0.15200
H442        H  0.00629730  0.20162751  0.85621086     0.01000
H443        H  0.04034547  0.15374439  0.94596290     0.15500
H444        H  0.03161359  0.22213806  0.96538276     0.15300
C445        C  0.01000151  0.18440675  0.00366067     0.87100
C446        C  0.03663932  0.18214860  0.02122959    -0.53100
C447        C  0.03746002  0.18643288  0.05909271     0.10000
C448        C  0.01211797  0.19520770  0.07566603     0.21000
C449        C  0.49364760  0.16643260  0.02761051    -0.53800
C450        C  0.49341131  0.17284056  0.06552268     0.10100
C451        C  0.99841560  0.21005376  0.01618850    -0.53400
C452        C  0.00399785  0.21863797  0.05124036     0.10700
H453        H  0.05314309  0.17606728  0.00529347     0.15200
H454        H  0.01273982  0.19946897  0.10629294     0.01000
H455        H  0.48071833  0.15279881  0.01534896     0.15500
H456        H  0.98040426  0.21613801  0.00454486     0.15300
C457        C  0.06045753  0.23647220  0.50653992     0.87100
C458        C  0.07907667  0.24975698  0.53274186    -0.53100
C459        C  0.07084906  0.24932911  0.57029683     0.10000
C460        C  0.04578627  0.23327456  0.57723781     0.21000
C461        C  0.05920154  0.20914326  0.52343613    -0.53800
C462        C  0.05287016  0.20748494  0.56049766     0.10100
C463        C  0.03659718  0.25180134  0.51807241    -0.53400
C464        C  0.02500048  0.24539989  0.55082411     0.10700
H465        H  0.09425271  0.26181010  0.52230685     0.15200
H466        H  0.03988641  0.23223003  0.60731010     0.01000
H467        H  0.06608059  0.19274547  0.50796096     0.15500
H468        H  0.02907871  0.26670109  0.49973203     0.15300
C469        C  0.05913105  0.23529553  0.46145030     0.87100
C470        C  0.07522293  0.21760798  0.43658006    -0.53100
C471        C  0.06681523  0.21665881  0.39942295     0.10000
C472        C  0.04367989  0.23457451  0.39047222     0.21000
C473        C  0.06002367  0.26115981  0.44141303    -0.53800
C474        C  0.05311527  0.26095148  0.40427307     0.10100
C475        C  0.03285353  0.22443858  0.45366974    -0.53400
C476        C  0.02264984  0.22554751  0.41849590     0.10700
H477        H  0.08980464  0.20505391  0.44792045     0.15200
H478        H  0.03750547  0.23451238  0.36051455     0.01000
H479        H  0.06759646  0.27790779  0.45508091     0.15500
H480        H  0.02370711  0.21491890  0.47681862     0.15300
C481        C  0.45955428  0.23090177  0.50300569     0.87100
C482        C  0.45627231  0.20653705  0.52605341    -0.53100
C483        C  0.46262791  0.20841031  0.56330467     0.10000
C484        C  0.47427729  0.23436221  0.57426462     0.21000
C485        C  0.44483451  0.25143622  0.52534344    -0.53800
C486        C  0.45304374  0.25384174  0.56249973     0.10100
C487        C  0.48655226  0.24001559  0.51053502    -0.53400
C488        C  0.49630065  0.23966194  0.54610916     0.10700
H489        H  0.44765778  0.18967239  0.51418083     0.15200
H490        H  0.48013763  0.23551863  0.60429901     0.01000
H491        H  0.43145210  0.26456212  0.51227856     0.15500
H492        H  0.49619391  0.24853335  0.48695143     0.15300
C493        C  0.45836526  0.22706585  0.45792666     0.87100
C494        C  0.45838726  0.25332874  0.43801654    -0.53100
C495        C  0.46436400  0.25327025  0.40077718     0.10000
C496        C  0.47291739  0.22719409  0.38688225     0.21000
C497        C  0.44060963  0.21112245  0.43320239    -0.53800
C498        C  0.44895447  0.20982764  0.39565280     0.10100
C499        C  0.48286445  0.21238969  0.44781081    -0.53400
C500        C  0.49431104  0.21788753  0.41446834     0.10700
H501        H  0.45088054  0.27021167  0.45156498     0.15200
H502        H  0.47880348  0.22706992  0.35677902     0.01000
H503        H  0.42634571  0.19854799  0.44507074     0.15500
H504        H  0.49003858  0.19765808  0.46677680     0.15300
O505        O  0.05729225  0.28229246  0.34385185    -0.57200
C506        C  0.07854936  0.31685190  0.25540994     0.75400
O507        O  0.02975653  0.34223694  0.36404022    -0.58300
C508        C  0.05882869  0.28320546  0.37943566     0.75400
C509        C  0.10784138  0.36545390  0.34686969     0.77800
Cd510      Cd  0.06874986  0.32825126  0.33277253     1.37500
O511        O  0.08831832  0.30326070  0.28148788    -0.57200
O512        O  0.11288934  0.34187043  0.34619961    -0.56000
C513        C  0.01776366  0.34315073  0.33310436     0.77800
O514        O  0.08466954  0.37158574  0.34502925    -0.58400
O515        O  0.06460147  0.33521301  0.26532897    -0.56800
O516        O  0.06636760  0.30413467  0.39289858    -0.56800
O517        O  0.03041346  0.34196737  0.30293423    -0.56000
O518        O  0.42091060  0.29473742  0.27571422    -0.57200
C519        C  0.45670705  0.27455610  0.37536660     0.75400
O520        O  0.47757060  0.33720137  0.36136266    -0.58300
C521        C  0.43346619  0.30518550  0.24925788     0.75400
C522        C  0.40162646  0.35224593  0.34239258     0.77800
Cd523      Cd  0.44270769  0.31759697  0.32721783     1.37500
O524        O  0.45970059  0.27372257  0.33998628    -0.57200
O525        O  0.39751462  0.32875192  0.33793394    -0.56000
C526        C  0.49054187  0.34033986  0.33166497     0.77800
O527        O  0.42451631  0.35914173  0.34285433    -0.58400
O528        O  0.44583910  0.29428912  0.38785713    -0.56800
O529        O  0.45055098  0.32062183  0.25885616    -0.56800
O530        O  0.47981538  0.33656118  0.30033431    -0.56000
O531        O  0.44130241  0.31001513  0.18296472    -0.57200
C532        C  0.46023287  0.28371513  0.08394874     0.75400
O533        O  0.40646287  0.25201603  0.09654920    -0.58300
C534        C  0.42822265  0.30011087  0.20930980     0.75400
C535        C  0.38122215  0.33173101  0.11542549     0.77800
Cd536      Cd  0.41652617  0.29110999  0.13104947     1.37500
O537        O  0.46160678  0.28256931  0.11958955    -0.57200
O538        O  0.40463407  0.33581148  0.11959535    -0.56000
C539        C  0.40427220  0.23897169  0.12654044     0.77800
O540        O  0.37431854  0.30869404  0.11489359    -0.58400
O541        O  0.43906784  0.29029363  0.07005549    -0.56800
O542        O  0.41010166  0.28593473  0.19954703    -0.56800
O543        O  0.40315135  0.25086926  0.15734170    -0.56000
O544        O  0.46910575  0.17483363  0.12273982    -0.57200
C545        C  0.43352016  0.15167766  0.21153603     0.75400
O546        O  0.41152997  0.19894422  0.09705854    -0.58300
C547        C  0.47148313  0.16607744  0.08983196     0.75400
C548        C  0.38572638  0.12402029  0.11754219     0.77800
Cd549      Cd  0.42470962  0.16046363  0.13277140     1.37500
O550        O  0.44540982  0.13901419  0.18683513    -0.57200
O551        O  0.40819214  0.11702020  0.12478755    -0.56000
C552        C  0.40704306  0.21142441  0.12680008     0.77800
O553        O  0.38189857  0.14763740  0.11342214    -0.58400
O554        O  0.41784901  0.16814120  0.19979139    -0.56800
O555        O  0.45309840  0.15299973  0.07778836    -0.56800
O556        O  0.40838221  0.19956470  0.15788951    -0.56000
O557        O  0.05011586  0.28792071  0.12447612    -0.57200
C558        C  0.08319923  0.31202277  0.21543325     0.75400
O559        O  0.10803297  0.26697414  0.09943758    -0.58300
C560        C  0.04773077  0.29790125  0.09207142     0.75400
C561        C  0.13287177  0.34066887  0.12243859     0.77800
Cd562      Cd  0.09364898  0.30381237  0.13684676     1.37500
O563        O  0.07269803  0.32534682  0.18980847    -0.57200
O564        O  0.11014010  0.34771590  0.12733140    -0.56000
C565        C  0.11261548  0.25348268  0.12850301     0.77800
O566        O  0.13685816  0.31699640  0.12068493    -0.58400
O567        O  0.09807522  0.29460712  0.20484795    -0.56800
O568        O  0.06558156  0.31236676  0.08144267    -0.56800
O569        O  0.11075613  0.26412825  0.16021993    -0.56000
O570        O  0.07952749  0.15583976  0.18277441    -0.57200
C571        C  0.05989177  0.18087223  0.08265242     0.75400
O572        O  0.11403799  0.21396449  0.09610310    -0.58300
C573        C  0.09321140  0.16567714  0.20819755     0.75400
C574        C  0.13895728  0.13252113  0.11455984     0.77800
Cd575      Cd  0.10410518  0.17370517  0.12929331     1.37500
O576        O  0.05899860  0.18267145  0.11820099    -0.57200
O577        O  0.11593067  0.12879131  0.12258765    -0.56000
C578        C  0.11601088  0.22601746  0.12671455     0.77800
O579        O  0.14571716  0.15544554  0.10988187    -0.58400
O580        O  0.08082389  0.17378852  0.06862973    -0.56800
O581        O  0.11171964  0.17904558  0.19716364    -0.56800
O582        O  0.11738494  0.21308594  0.15687144    -0.56000
O583        O  0.45041901  0.18614406  0.33823106    -0.57200
C584        C  0.43765816  0.14764204  0.25188004     0.75400
O585        O  0.48708106  0.13284840  0.36606107    -0.58300
C586        C  0.44485576  0.18665709  0.37293739     0.75400
C587        C  0.41059642  0.09902976  0.34452605     0.77800
Cd588      Cd  0.44651189  0.13949178  0.33072807     1.37500
O589        O  0.42599452  0.16060860  0.27646679    -0.57200
O590        O  0.40400203  0.12210630  0.34146245    -0.56000
C591        C  0.50009665  0.13162662  0.33601860     0.77800
O592        O  0.43419118  0.09451783  0.34517358    -0.58400
O593        O  0.45315524  0.13103025  0.26375275    -0.56800
O594        O  0.43812008  0.16568687  0.38778438    -0.56800
O595        O  0.48807169  0.13082791  0.30530547    -0.56000
O596        O  0.06643838  0.19547734  0.33994878    -0.57200
C597        C  0.08815728  0.16150621  0.24857031     0.75400
O598        O  0.09430027  0.10806408  0.34625402    -0.58300
C599        C  0.07379600  0.19570279  0.37391285     0.75400
C600        C  0.02765860  0.13424909  0.33535667     0.77800
Cd601      Cd  0.07902462  0.15097760  0.32778970     1.37500
O602        O  0.10027610  0.17308651  0.27403667    -0.57200
O603        O  0.03933547  0.13448674  0.30420396    -0.56000
C604        C  0.11758756  0.11340481  0.34370260     0.77800
O605        O  0.04045009  0.13917372  0.36457720    -0.58400
O606        O  0.07162076  0.14581134  0.25961643    -0.56800
O607        O  0.08563135  0.17614458  0.38558705    -0.56800
O608        O  0.12302166  0.13639939  0.33694631    -0.56000
O609        O  0.20556639  0.93833237  0.84166592    -0.57200
C610        C  0.18690101  0.90084251  0.75476979     0.75400
O611        O  0.23387746  0.88339006  0.86813855    -0.58300
C612        C  0.19674015  0.94056318  0.87465373     0.75400
C613        C  0.15759397  0.85402819  0.85199160     0.77800
Cd614      Cd  0.19416221  0.89273610  0.83405379     1.37500
O615        O  0.17434710  0.91346494  0.77878641    -0.57200
O616        O  0.15099631  0.87621592  0.84179574    -0.56000
C617        C  0.24555441  0.87708642  0.83833263     0.77800
O618        O  0.18096499  0.85032661  0.85779019    -0.58400
O619        O  0.20247415  0.88458991  0.76740448    -0.56800
O620        O  0.18541590  0.92127488  0.88806143    -0.56800
O621        O  0.23270891  0.87513423  0.80851261    -0.56000
O622        O  0.34303725  0.91836472  0.77631978    -0.57200
C623        C  0.31327233  0.93534141  0.87646747     0.75400
O624        O  0.28646610  0.88055924  0.86520450    -0.58300
C625        C  0.33349677  0.90578253  0.74949066     0.75400
C626        C  0.36483974  0.85843452  0.84295540     0.77800
Cd627      Cd  0.32353069  0.89273215  0.82788143     1.37500
O628        O  0.30923031  0.93650373  0.84125419    -0.57200
O629        O  0.36821997  0.88217763  0.84019195    -0.56000
C630        C  0.27304245  0.87630879  0.83647193     0.77800
O631        O  0.34216193  0.85071326  0.84235816    -0.58400
O632        O  0.32409935  0.91535061  0.88873450    -0.56800
O633        O  0.31862021  0.88794715  0.75868373    -0.56800
O634        O  0.28418036  0.87518336  0.80487534    -0.56000
O635        O  0.32357191  0.57092654  0.68838608    -0.57200
C636        C  0.29952827  0.54776348  0.58988408     0.75400
O637        O  0.38772253  0.56831889  0.61481947    -0.58300
C638        C  0.33794415  0.56031856  0.71262009     0.75400
C639        C  0.36300163  0.00169707  0.62883141     0.77800
Cd640      Cd  0.34574406  0.55278536  0.63364953     1.37500
O641        O  0.30111628  0.53962497  0.62348480    -0.57200
O642        O  0.36017983  0.51291776  0.65978183    -0.56000
C643        C  0.38263672  0.59157135  0.62000654     0.77800
O644        O  0.36073244  0.51488263  0.59885689    -0.58400
O645        O  0.31852777  0.55988850  0.57738360    -0.56800
O646        O  0.35557217  0.54636151  0.70029795    -0.56800
O647        O  0.35978127  0.59720719  0.62691971    -0.56000
O648        O  0.32927236  0.89971560  0.68264424    -0.57200
C649        C  0.30962946  0.92980658  0.58419956     0.75400
O650        O  0.36429559  0.96158562  0.59832294    -0.58300
C651        C  0.33983059  0.91122920  0.70970992     0.75400
C652        C  0.39142506  0.88315870  0.61638072     0.77800
Cd653      Cd  0.35359425  0.92184929  0.63187425     1.37500
O654        O  0.30848802  0.93097824  0.61978702    -0.57200
O655        O  0.36818894  0.87803922  0.62039236    -0.56000
C656        C  0.36564424  0.97413404  0.62853777     0.77800
O657        O  0.39729137  0.90648916  0.61653729    -0.58400
O658        O  0.33064062  0.92274155  0.57040733    -0.56800
O659        O  0.35653945  0.92742554  0.70088160    -0.56800
O660        O  0.36588043  0.96172835  0.65929384    -0.56000
O661        O  0.21980835  0.92452382  0.62549082    -0.57200
C662        C  0.18348052  0.90463623  0.71421946     0.75400
O663        O  0.16250471  0.94974689  0.59721516    -0.58300
C664        C  0.22137319  0.91682110  0.59187128     0.75400
C665        C  0.13790118  0.87285018  0.62165709     0.77800
Cd666      Cd  0.17483989  0.91169864  0.63499110     1.37500
O667        O  0.19550486  0.89153090  0.69017954    -0.57200
O668        O  0.16090856  0.86748366  0.62786673    -0.56000
C669        C  0.15692772  0.96253722  0.62625062     0.77800
O670        O  0.13233147  0.89614703  0.61769061    -0.58400
O671        O  0.16813124  0.92112105  0.70161573    -0.56800
O672        O  0.20231550  0.90497516  0.57936508    -0.56800
O673        O  0.15692381  0.95091579  0.65758695    -0.56000
O674        O  0.19139081  0.56369043  0.68109941    -0.57200
C675        C  0.21114873  0.53487439  0.58342148     0.75400
O676        O  0.15881091  0.50281062  0.59543803    -0.58300
C677        C  0.18076189  0.55213709  0.70839177     0.75400
C678        C  0.12880405  0.58106993  0.61495837     0.77800
Cd679      Cd  0.16698970  0.54221709  0.63052165     1.37500
O680        O  0.21193200  0.53208825  0.61890855    -0.57200
O681        O  0.15208553  0.58645881  0.61725288    -0.56000
C682        C  0.15452445  0.99015494  0.62532070     0.77800
O683        O  0.12330124  0.55766329  0.61657232    -0.58400
O684        O  0.19049205  0.54320143  0.56974196    -0.56800
O685        O  0.16429655  0.53575196  0.69983956    -0.56800
O686        O  0.15171074  0.50210667  0.65550546    -0.56000
O687        O  0.17740823  0.54524498  0.77533853    -0.57200
C688        C  0.20542123  0.52979709  0.87602504     0.75400
O689        O  0.23350366  0.58387355  0.86189115    -0.58300
C690        C  0.18660325  0.55801324  0.74803846     0.75400
C691        C  0.15451480  0.60714802  0.83951506     0.77800
Cd692      Cd  0.19579089  0.57219443  0.82576316     1.37500
O693        O  0.20737098  0.52789176  0.84053777    -0.57200
O694        O  0.15083570  0.58343134  0.83766909    -0.56000
C695        C  0.24699622  0.58759460  0.83292882     0.77800
O696        O  0.17730368  0.61449194  0.83815940    -0.58400
O697        O  0.19678471  0.55067551  0.88830254    -0.56800
O698        O  0.20056209  0.57661033  0.75657274    -0.56800
O699        O  0.23580862  0.58843092  0.80135002    -0.56000
O700        O  0.31537613  0.52622460  0.84043324    -0.57200
C701        C  0.33444501  0.56400406  0.75308235     0.75400
O702        O  0.28616044  0.58087602  0.86507124    -0.58300
C703        C  0.32332455  0.52402548  0.87393535     0.75400
C704        C  0.36212164  0.61184128  0.84958311     0.77800
Cd705      Cd  0.32638814  0.57203644  0.83207767     1.37500
O706        O  0.34810035  0.55264847  0.77748388    -0.57200
O707        O  0.36921055  0.58940397  0.84218339    -0.56000
C708        C  0.27454967  0.58687206  0.83491129     0.77800
O709        O  0.33851096  0.61547588  0.85271304    -0.58400
O710        O  0.31752817  0.57884339  0.76523667    -0.56800
O711        O  0.33423199  0.54337490  0.88738080    -0.56800
O712        O  0.28757393  0.58883267  0.80516293    -0.56000
C713        C  0.21123242  0.98189130  0.95877916     0.87100
C714        C  0.20790768  0.50823182  0.93937351    -0.53100
C715        C  0.21255309  0.50847902  0.90142994     0.10000
C716        C  0.22312381  0.98301858  0.88677454     0.21000
C717        C  0.19438900  0.96428847  0.93533054    -0.53800
C718        C  0.20150459  0.96353479  0.89754693     0.10100
C719        C  0.23726625  0.97084319  0.94718286    -0.53400
C720        C  0.24629988  0.97625295  0.91213368     0.10700
H721        H  0.20054806  0.52473973  0.95404493     0.15200
H722        H  0.22787014  0.98321491  0.85622572     0.01000
H723        H  0.18122720  0.95089780  0.94803560     0.15500
H724        H  0.24278411  0.95250370  0.95878867     0.15300
C725        C  0.21107887  0.98311791  0.00404856     0.87100
C726        C  0.20791683  0.95673628  0.02320871    -0.53100
C727        C  0.21259146  0.95625990  0.06114061     0.10000
C728        C  0.22278545  0.98140373  0.07619528     0.21000
C729        C  0.19430616  0.50094267  0.02766323    -0.53800
C730        C  0.20130975  0.50139125  0.06552146     0.10100
C731        C  0.23700672  0.99372689  0.01591009    -0.53400
C732        C  0.24596253  0.98784880  0.05080584     0.10700
H733        H  0.20072215  0.94029736  0.00839256     0.15200
H734        H  0.22753152  0.98103733  0.10672852     0.01000
H735        H  0.18117217  0.51454206  0.01509931     0.15500
H736        H  0.24841484  0.00420264  0.99655029     0.15300
C737        C  0.30784774  0.98250135  0.95862865     0.87100
C738        C  0.31077738  0.95634713  0.93958004    -0.53100
C739        C  0.30616038  0.95650007  0.90164838     0.10000
C740        C  0.29611728  0.98200404  0.88664558     0.21000
C741        C  0.32489292  0.50002366  0.93505564    -0.53800
C742        C  0.31800796  0.50103078  0.89720945     0.10100
C743        C  0.28190622  0.99376944  0.94690516    -0.53400
C744        C  0.27290439  0.98864255  0.91195828     0.10700
H745        H  0.31793848  0.93963559  0.95442175     0.15200
H746        H  0.29143309  0.98210482  0.85609009     0.01000
H747        H  0.33812561  0.51320290  0.94767741     0.15500
H748        H  0.27634529  0.01197733  0.95841789     0.15300
C749        C  0.30790197  0.98100737  0.00382176     0.87100
C750        C  0.31074266  0.50732482  0.02217871    -0.53100
C751        C  0.30613054  0.50761241  0.06005210     0.10000
C752        C  0.29625388  0.98255302  0.07594529     0.21000
C753        C  0.32466525  0.96316748  0.02774905    -0.53800
C754        C  0.31769771  0.96260941  0.06564537     0.10100
C755        C  0.28193831  0.97044330  0.01599529    -0.53400
C756        C  0.27302880  0.97622626  0.05082829     0.10700
H757        H  0.31785933  0.52384480  0.00698493     0.15200
H758        H  0.29157563  0.98289238  0.10650551     0.01000
H759        H  0.33766971  0.94951891  0.01535566     0.15500
H760        H  0.27052649  0.96001962  0.99692903     0.15300
C761        C  0.25955828  0.93431914  0.50514822     0.87100
C762        C  0.28630064  0.93168455  0.52258150    -0.53100
C763        C  0.28736826  0.93611278  0.56043236     0.10000
C764        C  0.26224003  0.94555742  0.57697085     0.21000
C765        C  0.24306275  0.91679902  0.52945438    -0.53800
C766        C  0.24315821  0.92340115  0.56727393     0.10100
C767        C  0.24847365  0.96022147  0.51737276    -0.53400
C768        C  0.25438572  0.96900313  0.55217790     0.10700
H769        H  0.30260144  0.92506507  0.50666405     0.15200
H770        H  0.26300259  0.95000263  0.60753016     0.01000
H771        H  0.22991142  0.90325335  0.51749701     0.15500
H772        H  0.23059739  0.96663630  0.50565955     0.15300
C773        C  0.25965474  0.93424525  0.46016406     0.87100
C774        C  0.23286785  0.93200978  0.44271352    -0.53100
C775        C  0.23191645  0.93632767  0.40464413     0.10000
C776        C  0.25703708  0.94547454  0.38791859     0.21000
C777        C  0.27601445  0.91642666  0.43635339    -0.53800
C778        C  0.27587231  0.92295512  0.39830377     0.10100
C779        C  0.27099398  0.95980577  0.44705959    -0.53400
C780        C  0.26491994  0.96874140  0.41213752     0.10700
H781        H  0.21655899  0.92544457  0.45869555     0.15200
H782        H  0.25638152  0.94997162  0.35724200     0.01000
H783        H  0.28902896  0.90260077  0.44866579     0.15500
H784        H  0.28151073  0.97132035  0.46592555     0.15300
C785        C  0.26085186  0.53078861  0.50380326     0.87100
C786        C  0.23426083  0.53352454  0.52164148    -0.53100
C787        C  0.23338940  0.52891821  0.55957879     0.10000
C788        C  0.25856387  0.51934039  0.57594969     0.21000
C789        C  0.27764192  0.54813203  0.52749219    -0.53800
C790        C  0.27770592  0.54139978  0.56547689     0.10100
C791        C  0.27187465  0.50479307  0.51645071    -0.53400
C792        C  0.26619759  0.49596898  0.55160955     0.10700
H793        H  0.21786318  0.54017020  0.50582025     0.15200
H794        H  0.25795180  0.51479606  0.60661378     0.01000
H795        H  0.29082990  0.56161725  0.51505760     0.15500
H796        H  0.28976053  0.49847730  0.50477890     0.15300
C797        C  0.26033669  0.53089243  0.45876340     0.87100
C798        C  0.28697391  0.53288721  0.44070354    -0.53100
C799        C  0.28763277  0.52846155  0.40277974     0.10000
C800        C  0.26222298  0.51966030  0.38675943     0.21000
C801        C  0.24389118  0.54883581  0.43478087    -0.53800
C802        C  0.24350199  0.54227231  0.39692007     0.10100
C803        C  0.24867753  0.50540259  0.44660236    -0.53400
C804        C  0.25442332  0.49642455  0.41178786     0.10700
H805        H  0.30352472  0.53904301  0.45627504     0.15200
H806        H  0.26261087  0.51519496  0.35618974     0.01000
H807        H  0.23098134  0.56262545  0.44706820     0.15500
H808        H  0.23835024  0.49389787  0.46608741     0.15300
O809        O  0.34356360  0.54530206  0.18439384    -0.57200
C810        C  0.31318746  0.52896993  0.08464281     0.75400
O811        O  0.28559273  0.58561772  0.09861455    -0.58300
C812        C  0.33399143  0.55779217  0.21144660     0.75400
C813        C  0.36441559  0.60581210  0.11780518     0.77800
Cd814      Cd  0.32349725  0.57137342  0.13329088     1.37500
O815        O  0.31028969  0.52761023  0.12005124    -0.57200
O816        O  0.36822694  0.58219027  0.12210462    -0.56000
C817        C  0.27251798  0.58782401  0.12832409     0.77800
O818        O  0.34157137  0.61327324  0.11721997    -0.58400
O819        O  0.32286900  0.54927509  0.07175471    -0.56800
O820        O  0.31917894  0.57588529  0.20250958    -0.56800
O821        O  0.28414503  0.58697715  0.15952326    -0.56000
O822        O  0.20498776  0.52607703  0.12208485    -0.57200
C823        C  0.18478338  0.56466958  0.21066754     0.75400
O824        O  0.23262197  0.58390576  0.09722990    -0.58300
C825        C  0.19620793  0.52415456  0.08905833     0.75400
C826        C  0.15699477  0.61150976  0.11453429     0.77800
Cd827      Cd  0.19329442  0.57182574  0.13118353     1.37500
O828        O  0.17275939  0.55158745  0.18673733    -0.57200
O829        O  0.15030162  0.58931369  0.12423313    -0.56000
C830        C  0.24496479  0.58699984  0.12752454     0.77800
O831        O  0.18036441  0.61484166  0.10840794    -0.58400
O832        O  0.20030423  0.58075719  0.19784111    -0.56800
O833        O  0.18461234  0.54358046  0.07627125    -0.56800
O834        O  0.23276526  0.58573413  0.15809950    -0.56000
O835        O  0.32790983  0.56176007  0.27842908    -0.57200
C836        C  0.30978164  0.53399248  0.37840406     0.75400
O837        O  0.36499346  0.50081296  0.36329240    -0.58300
C838        C  0.34011743  0.55196707  0.25124819     0.75400
C839        C  0.39127414  0.57878734  0.34410610     0.77800
Cd840      Cd  0.35330280  0.54062676  0.32936561     1.37500
O841        O  0.30863259  0.53122050  0.34303830    -0.57200
O842        O  0.36785929  0.58398897  0.34267828    -0.56000
C843        C  0.36426859  0.98795843  0.33344097     0.77800
O844        O  0.39734428  0.55550069  0.34178493    -0.58400
O845        O  0.33063787  0.54197480  0.39131658    -0.56800
O846        O  0.35820383  0.53716261  0.26003960    -0.56800
O847        O  0.36277590  0.50006567  0.30241797    -0.56000
O848        O  0.29865919  0.92338205  0.33973412    -0.57200
C849        C  0.33646301  0.90220152  0.25089569     0.75400
O850        O  0.36007841  0.94725529  0.36388588    -0.58300
C851        C  0.29723617  0.91565860  0.37353246     0.75400
C852        C  0.38108129  0.87117362  0.34340096     0.77800
Cd853      Cd  0.34334591  0.90966856  0.32976688     1.37500
O854        O  0.32453107  0.88873059  0.27487090    -0.57200
O855        O  0.35837587  0.86527579  0.33635079    -0.56000
C856        C  0.36112901  0.96046724  0.33375825     0.77800
O857        O  0.38567443  0.89453817  0.34806841    -0.58400
O858        O  0.35104416  0.91906307  0.26346950    -0.56800
O859        O  0.31612459  0.90318979  0.38595162    -0.56800
O860        O  0.35623764  0.94941094  0.30320233    -0.56000
O861        O  0.17758268  0.91904668  0.18756290    -0.57200
C862        C  0.20580244  0.93472534  0.08637706     0.75400
O863        O  0.23283189  0.87603904  0.10258935    -0.58300
C864        C  0.18584670  0.90535962  0.21464624     0.75400
C865        C  0.15376240  0.85853397  0.12244784     0.77800
Cd866      Cd  0.19546431  0.89217549  0.13663068     1.37500
O867        O  0.20866332  0.93607237  0.12175716    -0.57200
O868        O  0.15026505  0.88228078  0.12515926    -0.56000
C869        C  0.24635155  0.87538837  0.13202678     0.77800
O870        O  0.17648820  0.85072953  0.12306279    -0.58400
O871        O  0.19640114  0.91427659  0.07413908    -0.56800
O872        O  0.19873189  0.88592276  0.20580488    -0.56800
O873        O  0.23519138  0.87785799  0.16338084    -0.56000
O874        O  0.31355259  0.93731685  0.12221604    -0.57200
C875        C  0.33349439  0.89863034  0.21042871     0.75400
O876        O  0.28583982  0.87894313  0.09942947    -0.58300
C877        C  0.32245608  0.93954529  0.08923512     0.75400
C878        C  0.36257405  0.85279298  0.11540093     0.77800
Cd879      Cd  0.32550790  0.89157672  0.13164580     1.37500
O880        O  0.34471158  0.91262998  0.18635912    -0.57200
O881        O  0.36899454  0.87511045  0.12425789    -0.56000
C882        C  0.27388486  0.87618874  0.13027382     0.77800
O883        O  0.33920091  0.84901189  0.11011566    -0.58400
O884        O  0.31936471  0.88136572  0.19795593    -0.56800
O885        O  0.33392373  0.92018401  0.07651166    -0.56800
O886        O  0.28645436  0.87785439  0.16037845    -0.56000
O887        O  0.21976068  0.54245421  0.33895780    -0.57200
C888        C  0.18119267  0.56140174  0.25135808     0.75400
O889        O  0.16042301  0.51550577  0.36699471    -0.58300
C890        C  0.22128343  0.54901915  0.37309870     0.75400
C891        C  0.13707579  0.59358008  0.34475266     0.77800
Cd892      Cd  0.17405310  0.55420652  0.33097604     1.37500
O893        O  0.19401612  0.57387956  0.27507890    -0.57200
O894        O  0.15989334  0.59869246  0.33704360    -0.56000
C895        C  0.15718107  0.00275049  0.33693898     0.77800
O896        O  0.13178814  0.57037445  0.35016468    -0.58400
O897        O  0.16520992  0.54583957  0.26442577    -0.56800
O898        O  0.20183681  0.55982202  0.38673561    -0.56800
O899        O  0.15948359  0.51452099  0.30612598    -0.56000
O900        O  0.18996922  0.89889092  0.28164020    -0.57200
C901        C  0.21004479  0.92976122  0.38058604     0.75400
O902        O  0.15669660  0.96186297  0.36690667    -0.58300
C903        C  0.18029773  0.91139773  0.25436139     0.75400
C904        C  0.12780244  0.88485834  0.34630955     0.77800
Cd905      Cd  0.16676847  0.92241479  0.33205885     1.37500
O906        O  0.21145445  0.93146271  0.34499971    -0.57200
O907        O  0.15106262  0.87889385  0.34647456    -0.56000
C908        C  0.15488478  0.97508481  0.33699589     0.77800
O909        O  0.12261048  0.90830466  0.34272098    -0.58400
O910        O  0.18918070  0.92198550  0.39401517    -0.56800
O911        O  0.16514201  0.92915385  0.26294241    -0.56800
O912        O  0.15436138  0.96326564  0.30607278    -0.56000
O913        O  0.47033100  0.79101607  0.83946028    -0.57200
C914        C  0.43516891  0.81216705  0.74892360     0.75400
O915        O  0.41299848  0.76635469  0.86456649    -0.58300
C916        C  0.47195652  0.79996694  0.87233990     0.75400
C917        C  0.38617217  0.84056095  0.84290874     0.77800
Cd918      Cd  0.42588376  0.80446860  0.82795155     1.37500
O919        O  0.44626261  0.82567932  0.77329037    -0.57200
O920        O  0.40848836  0.84780148  0.83559181    -0.56000
C921        C  0.40846705  0.75346822  0.83529704     0.77800
O922        O  0.38280055  0.81690435  0.84681472    -0.58400
O923        O  0.42013265  0.79541074  0.76111296    -0.56800
O924        O  0.45315720  0.81294304  0.88360634    -0.56800
O925        O  0.41003658  0.76482582  0.80382589    -0.56000
O926        O  0.46122573  0.68094990  0.84498547    -0.57200
C927        C  0.42735720  0.66304347  0.75686203     0.75400
O928        O  0.37325872  0.65599804  0.85041792    -0.58300
C929        C  0.46001960  0.68098202  0.88065889     0.75400
C930        C  0.40510200  0.72597969  0.83665148     0.77800
Cd931      Cd  0.41592111  0.67323302  0.83465255     1.37500
O932        O  0.44061488  0.65340110  0.78330742    -0.57200
O933        O  0.40396564  0.71351096  0.80637237    -0.56000
C934        C  0.38032236  0.63290678  0.85032830     0.77800
O935        O  0.40649053  0.71342645  0.86724170    -0.58400
O936        O  0.40913452  0.67736085  0.76638653    -0.56800
O937        O  0.43890627  0.67503910  0.89525440    -0.56800
O938        O  0.40385095  0.62879784  0.84721169    -0.56000
O939        O  0.08043472  0.81198320  0.78389302    -0.57200
C940        C  0.06001686  0.78537351  0.88216434     0.75400
O941        O  0.11280720  0.75174218  0.86941427    -0.58300
C942        C  0.09381881  0.80167721  0.75840713     0.75400
C943        C  0.13932253  0.83313863  0.85273529     0.77800
Cd944      Cd  0.10451988  0.79266358  0.83689708     1.37500
O945        O  0.05910479  0.78561032  0.84647133    -0.57200
O946        O  0.11600664  0.83726459  0.84719288    -0.56000
C947        C  0.11610443  0.74007957  0.83869568     0.77800
O948        O  0.14631114  0.81007828  0.85506887    -0.58400
O949        O  0.08115838  0.79056482  0.89705414    -0.56800
O950        O  0.11183091  0.78742112  0.76923624    -0.56800
O951        O  0.11889206  0.75340831  0.80913513    -0.56000
O952        O  0.05063194  0.67911937  0.83925563    -0.57200
C953        C  0.08333900  0.65446179  0.74733424     0.75400
O954        O  0.10828828  0.69871962  0.86448588    -0.58300
C955        C  0.04794369  0.66822417  0.87095298     0.75400
C956        C  0.13344441  0.62546271  0.83973722     0.77800
Cd957      Cd  0.09390122  0.66253360  0.82601560     1.37500
O958        O  0.07194775  0.64196800  0.77293249    -0.57200
O959        O  0.11066973  0.61864057  0.83538172    -0.56000
C960        C  0.11261432  0.71269419  0.83587439     0.77800
O961        O  0.13743251  0.64910335  0.84128080    -0.58400
O962        O  0.09900998  0.67095464  0.75803264    -0.56800
O963        O  0.06558301  0.65309025  0.88083795    -0.56800
O964        O  0.11048067  0.70264251  0.80377667    -0.56000
O965        O  0.08978573  0.66255026  0.68134842    -0.57200
C966        C  0.05922643  0.68436162  0.58353620     0.75400
O967        O  0.08572296  0.59541269  0.61434534    -0.58300
C968        C  0.07891072  0.64974333  0.70722809     0.75400
C969        C  0.01885500  0.62357968  0.63030240     0.77800
Cd970      Cd  0.06985336  0.63873866  0.62922668     1.37500
O971        O  0.05972466  0.68491353  0.61921568    -0.57200
O972        O  0.03204059  0.62401247  0.65998316    -0.56000
C973        C  0.10900525  0.60097990  0.61426019     0.77800
O974        O  0.03025851  0.62598307  0.59901587    -0.58400
O975        O  0.06526927  0.66328669  0.56877885    -0.56800
O976        O  0.06414645  0.63228068  0.69694244    -0.56800
O977        O  0.11427306  0.62438756  0.61684850    -0.56000
O978        O  0.46087955  0.68878400  0.62509777    -0.57200
C979        C  0.43262252  0.65771815  0.71702580     0.75400
O980        O  0.42579605  0.60409637  0.62128506    -0.58300
C981        C  0.45489223  0.68841516  0.59057059     0.75400
C982        C  0.49149901  0.62513100  0.63289164     0.77800
Cd983      Cd  0.44252686  0.64572471  0.63917803     1.37500
O984        O  0.42060882  0.66878336  0.69048304    -0.57200
O985        O  0.48100370  0.62800882  0.66468373    -0.56000
C986        C  0.40270673  0.61059263  0.62202580     0.77800
O987        O  0.47789230  0.62782259  0.60374878    -0.58400
O988        O  0.44928375  0.64160584  0.70759290    -0.56800
O989        O  0.44144535  0.66988323  0.58016471    -0.56800
O990        O  0.39790355  0.63381994  0.62805673    -0.56000
O991        O  0.45285131  0.77696547  0.62049354    -0.57200
C992        C  0.43934459  0.81567920  0.70845715     0.75400
O993        O  0.48893903  0.83063381  0.59640966    -0.58300
C994        C  0.44822893  0.77684709  0.58546376     0.75400
C995        C  0.41061333  0.86281008  0.61538898     0.77800
Cd996      Cd  0.44779925  0.82337166  0.62938217     1.37500
O997        O  0.42926428  0.80120942  0.68429494    -0.57200
O998        O  0.40457160  0.83996920  0.62212672    -0.56000
C999        C  0.50106434  0.83277111  0.62707148     0.77800
O1000       O  0.43400103  0.86726562  0.61092180    -0.58400
O1001       O  0.45317178  0.83343394  0.69605280    -0.56800
O1002       O  0.44131719  0.79789356  0.57088902    -0.56800
O1003       O  0.48821429  0.83371142  0.65704522    -0.56000
O1004       O  0.10020892  0.79333959  0.69294191    -0.57200
C1005       C  0.07730801  0.77037054  0.59545140     0.75400
O1006       O  0.04235601  0.82680335  0.60061466    -0.58300
C1007       C  0.08898484  0.80611405  0.71816129     0.75400
C1008       C  0.11840500  0.85318809  0.62285981     0.77800
Cd1009     Cd  0.08030630  0.81588617  0.63918387     1.37500
O1010       O  0.06875318  0.77120830  0.62875564    -0.57200
O1011       O  0.12399662  0.83033458  0.63066579    -0.56000
C1012       C  0.02863887  0.83100087  0.62924026     0.77800
O1013       O  0.09510756  0.85852855  0.61946534    -0.58400
O1014       O  0.08931349  0.78970732  0.58373682    -0.56800
O1015       O  0.07359848  0.82307499  0.70696816    -0.56800
O1016       O  0.03948399  0.83083123  0.66103076    -0.56000
C1017       C  0.00924331  0.78156692  0.95982457     0.87100
C1018       C  0.03607803  0.78376390  0.94285635    -0.53100
C1019       C  0.03740366  0.77960372  0.90502500     0.10000
C1020       C  0.01240965  0.77092059  0.88773556     0.21000
C1021       C  0.49305718  0.79963281  0.93547657    -0.53800
C1022       C  0.49347696  0.79332587  0.89746511     0.10100
C1023       C  0.99790533  0.75608922  0.94684227    -0.53400
C1024       C  0.00416848  0.74753420  0.91193666     0.10700
H1025       H  0.05234432  0.78985450  0.95913796     0.15200
H1026       H  0.01349427  0.76668095  0.85712335     0.01000
H1027       H  0.47978457  0.81320516  0.94744293     0.15500
H1028       H  0.98755497  0.74426522  0.96587896     0.15300
C1029       C  0.00964013  0.78104363  0.00480987     0.87100
C1030       C  0.48301517  0.78312128  0.02249210    -0.53100
C1031       C  0.48219877  0.77807294  0.06029651     0.10000
C1032       C  0.00742196  0.76870542  0.07661570     0.21000
C1033       C  0.02613571  0.79838599  0.02911463    -0.53800
C1034       C  0.02619940  0.79120241  0.06693259     0.10100
C1035       C  0.02103885  0.75508150  0.01682081    -0.53400
C1036       C  0.01539234  0.74577225  0.05168424     0.10700
H1037       H  0.46660111  0.78985946  0.00678361     0.15200
H1038       H  0.00676319  0.76374319  0.10714210     0.01000
H1039       H  0.03906246  0.81232079  0.01718158     0.15500
H1040       H  0.03908952  0.74921399  0.00518678     0.15300
C1041       C  0.01025949  0.68490969  0.95882214     0.87100
C1042       C  0.48353493  0.68253670  0.94163497    -0.53100
C1043       C  0.48228878  0.68733581  0.90382700     0.10000
C1044       C  0.00719456  0.69699334  0.88689943     0.21000
C1045       C  0.02689454  0.66766201  0.93427264    -0.53800
C1046       C  0.02653482  0.67473143  0.89637131     0.10100
C1047       C  0.02114821  0.71081919  0.94640031    -0.53400
C1048       C  0.01489817  0.72001245  0.91169594     0.10700
H1049       H  0.46736747  0.67566472  0.95765878     0.15200
H1050       H  0.00617958  0.70187088  0.85636443     0.01000
H1051       H  0.04024938  0.65396582  0.94607298     0.15500
H1052       H  0.03139883  0.72233361  0.96559284     0.15300
C1053       C  0.00978899  0.68454392  0.00379148     0.87100
C1054       C  0.03640244  0.68225118  0.02141264    -0.53100
C1055       C  0.03718948  0.68650680  0.05928343     0.10000
C1056       C  0.01184024  0.69528486  0.07582187     0.21000
C1057       C  0.49339041  0.66656572  0.02767267    -0.53800
C1058       C  0.49312565  0.67293548  0.06559896     0.10100
C1059       C  0.99820808  0.71018806  0.01634154    -0.53400
C1060       C  0.00377700  0.71874830  0.05141103     0.10700
H1061       H  0.05292026  0.67618381  0.00549679     0.15200
H1062       H  0.01243894  0.69952368  0.10645688     0.01000
H1063       H  0.48047373  0.65294016  0.01536331     0.15500
H1064       H  0.98018160  0.71625310  0.00472793     0.15300
C1065       C  0.06055905  0.73640388  0.50642788     0.87100
C1066       C  0.07919216  0.74969846  0.53259697    -0.53100
C1067       C  0.07098712  0.74927858  0.57016171     0.10000
C1068       C  0.04594660  0.73318742  0.57715069     0.21000
C1069       C  0.05932859  0.70906587  0.52331931    -0.53800
C1070       C  0.05303146  0.70739204  0.56039564     0.10100
C1071       C  0.03669990  0.75171820  0.51800963    -0.53400
C1072       C  0.02512751  0.74531566  0.55078462     0.10700
H1073       H  0.09433334  0.76178264  0.52212723     0.15200
H1074       H  0.04008008  0.73213338  0.60723642     0.01000
H1075       H  0.06617475  0.69266867  0.50781244     0.15500
H1076       H  0.02917801  0.76663544  0.49970217     0.15300
C1077       C  0.05919829  0.73525308  0.46133209     0.87100
C1078       C  0.07527459  0.71757172  0.43643651    -0.53100
C1079       C  0.06684667  0.71663183  0.39929111     0.10000
C1080       C  0.04370642  0.73454522  0.39037105     0.21000
C1081       C  0.06008462  0.76112263  0.44129937    -0.53800
C1082       C  0.05317012  0.76091550  0.40415958     0.10100
C1083       C  0.03291371  0.72440191  0.45357735    -0.53400
C1084       C  0.02267944  0.72551516  0.41842086     0.10700
H1085       H  0.08985998  0.70501315  0.44775446     0.15200
H1086       H  0.03752046  0.73448940  0.36041826     0.01000
H1087       H  0.06768486  0.77786357  0.45495269     0.15500
H1088       H  0.02379384  0.71486557  0.47673349     0.15300
C1089       C  0.45964481  0.73088600  0.50305240     0.87100
C1090       C  0.45632157  0.70654879  0.52612965    -0.53100
C1091       C  0.46266058  0.70844578  0.56338003     0.10000
C1092       C  0.47435746  0.73439354  0.57429582     0.21000
C1093       C  0.44494557  0.75146194  0.52532903    -0.53800
C1094       C  0.45314577  0.75389584  0.56247752     0.10100
C1095       C  0.48665288  0.73995900  0.51055980    -0.53400
C1096       C  0.49640557  0.73962264  0.54612845     0.10700
H1097       H  0.44769026  0.68968689  0.51427630     0.15200
H1098       H  0.48020934  0.73557187  0.60433079     0.01000
H1099       H  0.43155526  0.76456962  0.51224201     0.15500
H1100       H  0.49629627  0.74845041  0.48695891     0.15300
C1101       C  0.45843712  0.72702079  0.45800708     0.87100
C1102       C  0.45845100  0.75327428  0.43809105    -0.53100
C1103       C  0.46434294  0.75319419  0.40083238     0.10000
C1104       C  0.47287547  0.72711460  0.38693196     0.21000
C1105       C  0.44062250  0.71108544  0.43338055    -0.53800
C1106       C  0.44890697  0.70976812  0.39581254     0.10100
C1107       C  0.48292022  0.71233029  0.44782912    -0.53400
C1108       C  0.49432864  0.71782657  0.41445332     0.10700
H1109       H  0.45097673  0.77016673  0.45165100     0.15200
H1110       H  0.47871124  0.72698052  0.35680757     0.01000
H1111       H  0.42634726  0.69855070  0.44531106     0.15500
H1112       H  0.49011535  0.69760656  0.46678990     0.15300
O1113       O  0.05768282  0.78215223  0.34370598    -0.57200
C1114       C  0.07832126  0.81695703  0.25519857     0.75400
O1115       O  0.02972154  0.84222708  0.36385307    -0.58300
C1116       C  0.05892149  0.78315454  0.37930926     0.75400
C1117       C  0.10780064  0.86544833  0.34680318     0.77800
Cd1118     Cd  0.06873918  0.82822102  0.33264001     1.37500
O1119       O  0.08817534  0.80336357  0.28120292    -0.57200
O1120       O  0.11289149  0.84188810  0.34562870    -0.56000
C1121       C  0.01769621  0.84291885  0.33293533     0.77800
O1122       O  0.08460533  0.87154646  0.34539331    -0.58400
O1123       O  0.06440017  0.83531987  0.26521028    -0.56800
O1124       O  0.06619085  0.80416926  0.39279775    -0.56800
O1125       O  0.03032204  0.84158470  0.30275929    -0.56000
O1126       O  0.42050143  0.79491829  0.27584130    -0.57200
C1127       C  0.45656535  0.77444611  0.37545944     0.75400
O1128       O  0.47748448  0.83720843  0.36131067    -0.58300
C1129       C  0.43318956  0.80524698  0.24941977     0.75400
C1130       C  0.40156073  0.85228708  0.34250553     0.77800
Cd1131     Cd  0.44254016  0.81749882  0.32739453     1.37500
O1132       O  0.45929465  0.77353060  0.34004140    -0.57200
O1133       O  0.39737519  0.82883381  0.33776686    -0.56000
C1134       C  0.49046982  0.84009205  0.33156950     0.77800
O1135       O  0.42447712  0.85908270  0.34330108    -0.58400
O1136       O  0.44585984  0.79423969  0.38804075    -0.56800
O1137       O  0.45044179  0.82048204  0.25907093    -0.56800
O1138       O  0.47973635  0.83610297  0.30030624    -0.56000
O1139       O  0.44112732  0.81003963  0.18314015    -0.57200
C1140       C  0.46004942  0.78380387  0.08415465     0.75400
O1141       O  0.40644939  0.75207844  0.09653021    -0.58300
C1142       C  0.42793756  0.80023964  0.20944825     0.75400
C1143       C  0.38103893  0.83187088  0.11535287     0.77800
Cd1144     Cd  0.41632687  0.79124074  0.13112448     1.37500
O1145       O  0.46145308  0.78281807  0.11980606    -0.57200
O1146       O  0.40448255  0.83596037  0.11912875    -0.56000
C1147       C  0.40413018  0.73903361  0.12649884     0.77800
O1148       O  0.37412420  0.80883430  0.11516950    -0.58400
O1149       O  0.43886249  0.79026274  0.07021948    -0.56800
O1150       O  0.40972306  0.78620426  0.19962494    -0.56800
O1151       O  0.40290086  0.75094645  0.15727785    -0.56000
O1152       O  0.46881994  0.67478881  0.12283722    -0.57200
C1153       C  0.43314951  0.65157407  0.21159459     0.75400
O1154       O  0.41121508  0.69893701  0.09705553    -0.58300
C1155       C  0.47121192  0.66608960  0.08990052     0.75400
C1156       C  0.38540644  0.62391862  0.11750711     0.77800
Cd1157     Cd  0.42439872  0.66041968  0.13278223     1.37500
O1158       O  0.44484958  0.63873670  0.18689234    -0.57200
O1159       O  0.40784835  0.61694721  0.12496504    -0.56000
C1160       C  0.40684380  0.71146572  0.12679033     0.77800
O1161       O  0.38160341  0.64752713  0.11317149    -0.58400
O1162       O  0.41767515  0.66822527  0.19983805    -0.56800
O1163       O  0.45284899  0.65299501  0.07782689    -0.56800
O1164       O  0.40821493  0.69962046  0.15789212    -0.56000
O1165       O  0.04979923  0.78823810  0.12467728    -0.57200
C1166       C  0.08288350  0.81211256  0.21521334     0.75400
O1167       O  0.10719024  0.76689161  0.09922560    -0.58300
C1168       C  0.04751408  0.79802569  0.09212590     0.75400
C1169       C  0.13264195  0.84055696  0.12227565     0.77800
Cd1170     Cd  0.09341194  0.80385505  0.13670591     1.37500
O1171       O  0.07253715  0.82557082  0.18960302    -0.57200
O1172       O  0.10986692  0.84765545  0.12652781    -0.56000
C1173       C  0.11242305  0.75358083  0.12822771     0.77800
O1174       O  0.13665972  0.81687563  0.12106314    -0.58400
O1175       O  0.09755727  0.79453226  0.20461960    -0.56800
O1176       O  0.06548407  0.81226394  0.08125784    -0.56800
O1177       O  0.11119834  0.76439429  0.15988157    -0.56000
O1178       O  0.07955116  0.65546871  0.18278366    -0.57200
C1179       C  0.05962257  0.68097041  0.08283840     0.75400
O1180       O  0.11355690  0.71401171  0.09604014    -0.58300
C1181       C  0.09296861  0.66563022  0.20822962     0.75400
C1182       C  0.13877689  0.63269150  0.11441112     0.77800
Cd1183     Cd  0.10387227  0.67380609  0.12937390     1.37500
O1184       O  0.05867354  0.68251145  0.11841918    -0.57200
O1185       O  0.11568509  0.62893848  0.12196460    -0.56000
C1186       C  0.11579330  0.72611629  0.12655830     0.77800
O1187       O  0.14559863  0.65564004  0.11027456    -0.58400
O1188       O  0.08062773  0.67417725  0.06875040    -0.56800
O1189       O  0.11118859  0.67940343  0.19724121    -0.56800
O1190       O  0.11738940  0.71324078  0.15675240    -0.56000
O1191       O  0.45053245  0.68604868  0.33847533    -0.57200
C1192       C  0.43730774  0.64754716  0.25195102     0.75400
O1193       O  0.48688185  0.63280329  0.36610363    -0.58300
C1194       C  0.44467385  0.68664173  0.37306374     0.75400
C1195       C  0.41027807  0.59913702  0.34477564     0.77800
Cd1196     Cd  0.44626392  0.63950218  0.33083715     1.37500
O1197       O  0.42592037  0.66076316  0.27652910    -0.57200
O1198       O  0.40369664  0.62218050  0.34109455    -0.56000
C1199       C  0.49989205  0.63169923  0.33604514     0.77800
O1200       O  0.43387042  0.59464288  0.34599972    -0.58400
O1201       O  0.45256384  0.63071303  0.26384403    -0.56800
O1202       O  0.43753349  0.66576686  0.38778060    -0.56800
O1203       O  0.48785319  0.63097595  0.30533678    -0.56000
O1204       O  0.06640447  0.69544877  0.33983646    -0.57200
C1205       C  0.08793853  0.66140680  0.24857991     0.75400
O1206       O  0.09412970  0.60801265  0.34625392    -0.58300
C1207       C  0.07379655  0.69567374  0.37378408     0.75400
C1208       C  0.02745911  0.63433156  0.33537471     0.77800
Cd1209     Cd  0.07886773  0.65092528  0.32775282     1.37500
O1210       O  0.09986930  0.67319306  0.27402982    -0.57200
O1211       O  0.03912694  0.63457141  0.30421671    -0.56000
C1212       C  0.11741442  0.61335983  0.34366940     0.77800
O1213       O  0.04026779  0.63923351  0.36459012    -0.58400
O1214       O  0.07161711  0.64548381  0.25962371    -0.56800
O1215       O  0.08561676  0.67610600  0.38546028    -0.56800
O1216       O  0.12284125  0.63634386  0.33682352    -0.56000
O1217       O  0.70556739  0.43838039  0.84145346    -0.57200
C1218       C  0.68716916  0.40089977  0.75468350     0.75400
O1219       O  0.73410437  0.38371599  0.86815712    -0.58300
C1220       C  0.69673111  0.44060034  0.87444079     0.75400
C1221       C  0.65765859  0.35401548  0.85191780     0.77800
Cd1222     Cd  0.69429554  0.39270639  0.83397303     1.37500
O1223       O  0.67490801  0.41381262  0.77868485    -0.57200
O1224       O  0.65106697  0.37616128  0.84149961    -0.56000
C1225       C  0.74573158  0.37699067  0.83851715     0.77800
O1226       O  0.68101047  0.35037816  0.85793987    -0.58400
O1227       O  0.70240451  0.38432925  0.76733007    -0.56800
O1228       O  0.68547293  0.42127613  0.88787477    -0.56800
O1229       O  0.73282494  0.37467457  0.80881957    -0.56000
O1230       O  0.84328928  0.41821016  0.77634610    -0.57200
C1231       C  0.81350614  0.43506958  0.87653633     0.75400
O1232       O  0.78672575  0.38029670  0.86529557    -0.58300
C1233       C  0.83370057  0.40570455  0.74947679     0.75400
C1234       C  0.86510067  0.35805970  0.84253250     0.77800
Cd1235     Cd  0.82379864  0.39247484  0.82784096     1.37500
O1236       O  0.80944510  0.43618708  0.84132743    -0.57200
O1237       O  0.86852310  0.38181186  0.84007824    -0.56000
C1238       C  0.77323568  0.37614041  0.83659525     0.77800
O1239       O  0.84241153  0.35038238  0.84175841    -0.58400
O1240       O  0.82442581  0.41512486  0.88880928    -0.56800
O1241       O  0.81881930  0.38786212  0.75862179    -0.56800
O1242       O  0.78433306  0.37503269  0.80496430    -0.56000
O1243       O  0.82403437  0.07149915  0.68817503    -0.57200
C1244       C  0.79945606  0.04792085  0.58987362     0.75400
O1245       O  0.88776852  0.06831135  0.61478978    -0.58300
C1246       C  0.83816598  0.06053262  0.71238010     0.75400
C1247       C  0.86330108  0.50171058  0.62878871     0.77800
Cd1248     Cd  0.84572097  0.05288340  0.63348040     1.37500
O1249       O  0.80089327  0.04014945  0.62367397    -0.57200
O1250       O  0.85958254  0.01289424  0.65976393    -0.56000
C1251       C  0.88271736  0.09157787  0.61992975     0.77800
O1252       O  0.86080577  0.01489960  0.59885915    -0.58400
O1253       O  0.81859562  0.05971971  0.57716515    -0.56800
O1254       O  0.85547714  0.04618489  0.70004764    -0.56800
O1255       O  0.85986293  0.09726510  0.62674660    -0.56000
O1256       O  0.82929907  0.39987098  0.68261209    -0.57200
C1257       C  0.80975738  0.42987389  0.58423689     0.75400
O1258       O  0.86422293  0.46163130  0.59823117    -0.58300
C1259       C  0.83998753  0.41123600  0.70970214     0.75400
C1260       C  0.89137101  0.38301410  0.61642141     0.77800
Cd1261     Cd  0.85373031  0.42189265  0.63187329     1.37500
O1262       O  0.80872873  0.43147620  0.61978864    -0.57200
O1263       O  0.86817738  0.37795418  0.62109032    -0.56000
C1264       C  0.86595349  0.47414941  0.62842488     0.77800
O1265       O  0.89725285  0.40634396  0.61588384    -0.58400
O1266       O  0.83064735  0.42239303  0.57050769    -0.56800
O1267       O  0.85678453  0.42734814  0.70089980    -0.56800
O1268       O  0.86652238  0.46171335  0.65914994    -0.56000
O1269       O  0.71979786  0.42474264  0.62541278    -0.57200
C1270       C  0.68374551  0.40468781  0.71414114     0.75400
O1271       O  0.66311642  0.44970174  0.59709468    -0.58300
C1272       C  0.72150033  0.41680289  0.59192829     0.75400
C1273       C  0.63790502  0.37279786  0.62152620     0.77800
Cd1274     Cd  0.67490512  0.41161278  0.63494659     1.37500
O1275       O  0.69534583  0.39120379  0.69011499    -0.57200
O1276       O  0.66094164  0.36740983  0.62744625    -0.56000
C1277       C  0.65684982  0.46235400  0.62595832     0.77800
O1278       O  0.63231800  0.39611038  0.61787701    -0.58400
O1279       O  0.66877777  0.42151819  0.70153185    -0.56800
O1280       O  0.70255892  0.40471848  0.57953219    -0.56800
O1281       O  0.65613791  0.45059706  0.65716982    -0.56000
O1282       O  0.69103746  0.06402281  0.68104410    -0.57200
C1283       C  0.71108184  0.03504033  0.58327476     0.75400
O1284       O  0.65831331  0.00297305  0.59547061    -0.58300
C1285       C  0.68051186  0.05228438  0.70825811     0.75400
C1286       C  0.62874000  0.08128070  0.61491838     0.77800
Cd1287     Cd  0.66690417  0.04242564  0.63036843     1.37500
O1288       O  0.71190330  0.03251136  0.61879772    -0.57200
O1289       O  0.65204415  0.08664695  0.61681223    -0.56000
C1290       C  0.65451118  0.48997596  0.62510519     0.77800
O1291       O  0.62320215  0.05789217  0.61688339    -0.58400
O1292       O  0.69036783  0.04314937  0.56951272    -0.56800
O1293       O  0.66417822  0.03579407  0.69961227    -0.56800
O1294       O  0.65215037  0.00230945  0.65576854    -0.56000
O1295       O  0.67734811  0.04506491  0.77515961    -0.57200
C1296       C  0.70581408  0.02961366  0.87602582     0.75400
O1297       O  0.73352714  0.08463711  0.86121839    -0.58300
C1298       C  0.68637743  0.05802568  0.74792375     0.75400
C1299       C  0.65458286  0.10675466  0.83945536     0.77800
Cd1300     Cd  0.69587833  0.07189124  0.82561884     1.37500
O1301       O  0.70768882  0.02762843  0.84054120    -0.57200
O1302       O  0.65090996  0.08302754  0.83776615    -0.56000
C1303       C  0.74705277  0.08753612  0.83208163     0.77800
O1304       O  0.67736128  0.11411571  0.83792294    -0.58400
O1305       O  0.69718151  0.05050928  0.88822848    -0.56800
O1306       O  0.70025661  0.07666354  0.75653029    -0.56800
O1307       O  0.73590340  0.08743678  0.80047457    -0.56000
O1308       O  0.81515135  0.02641199  0.84048508    -0.57200
C1309       C  0.83469681  0.06420712  0.75282816     0.75400
O1310       O  0.78627102  0.08168192  0.86449325    -0.58300
C1311       C  0.82326175  0.02420070  0.87389908     0.75400
C1312       C  0.86229295  0.11172908  0.84917258     0.77800
Cd1313     Cd  0.82647219  0.07208876  0.83174096     1.37500
O1314       O  0.84788595  0.05230241  0.77723776    -0.57200
O1315       O  0.86934655  0.08932797  0.84147162    -0.56000
C1316       C  0.77460927  0.08691487  0.83407677     0.77800
O1317       O  0.83869958  0.11537613  0.85256626    -0.58400
O1318       O  0.81822785  0.07955370  0.76495596    -0.56800
O1319       O  0.83440623  0.04347754  0.88713473    -0.56800
O1320       O  0.78758968  0.08815074  0.80421264    -0.56000
C1321       C  0.71108525  0.48191623  0.95867046     0.87100
C1322       C  0.70824514  0.00818958  0.93943140    -0.53100
C1323       C  0.71294039  0.00834616  0.90152738     0.10000
C1324       C  0.72290326  0.48324850  0.88653774     0.21000
C1325       C  0.69436667  0.46424617  0.93517093    -0.53800
C1326       C  0.70140873  0.46359834  0.89733244     0.10100
C1327       C  0.73710413  0.47103051  0.94682451    -0.53400
C1328       C  0.74612522  0.47669259  0.91188840     0.10700
H1329       H  0.70093630  0.02474814  0.95403587     0.15200
H1330       H  0.72762377  0.48349843  0.85598062     0.01000
H1331       H  0.68130642  0.45075205  0.94787038     0.15500
H1332       H  0.74837146  0.46034658  0.96608848     0.15300
C1333       C  0.71107416  0.48318583  0.00399124     0.87100
C1334       C  0.70797757  0.45681440  0.02313874    -0.53100
C1335       C  0.71269642  0.45636124  0.06104497     0.10000
C1336       C  0.72288188  0.48152050  0.07607223     0.21000
C1337       C  0.69430098  0.00088613  0.02768063    -0.53800
C1338       C  0.70124913  0.00130677  0.06556917     0.10100
C1339       C  0.73706997  0.49384705  0.01581400    -0.53400
C1340       C  0.74607194  0.48795746  0.05067405     0.10700
H1341       H  0.70078655  0.44036477  0.00834438     0.15200
H1342       H  0.72764856  0.48114639  0.10659863     0.01000
H1343       H  0.68123745  0.01453677  0.01507085     0.15500
H1344       H  0.74842781  0.50431790  0.99647893     0.15300
C1345       C  0.80784042  0.48238722  0.95856436     0.87100
C1346       C  0.81082896  0.45617850  0.93962428    -0.53100
C1347       C  0.80630112  0.45624781  0.90165933     0.10000
C1348       C  0.79627637  0.48171899  0.88650617     0.21000
C1349       C  0.82485055  0.00019789  0.93509498    -0.53800
C1350       C  0.81787121  0.00127760  0.89729480     0.10100
C1351       C  0.78198103  0.49359826  0.94671380    -0.53400
C1352       C  0.77305158  0.48841793  0.91173336     0.10700
H1353       H  0.81797296  0.43949782  0.95456059     0.15200
H1354       H  0.79164772  0.48178972  0.85593283     0.01000
H1355       H  0.83816134  0.01331876  0.94766596     0.15500
H1356       H  0.77629775  0.51175650  0.95820746     0.15300
C1357       C  0.80774984  0.48103096  0.00369704     0.87100
C1358       C  0.81112835  0.00729758  0.02228819    -0.53100
C1359       C  0.80655388  0.00766617  0.06018578     0.10000
C1360       C  0.79609096  0.48237231  0.07571790     0.21000
C1361       C  0.82470244  0.46331949  0.02752456    -0.53800
C1362       C  0.81771750  0.46264588  0.06537707     0.10100
C1363       C  0.78178908  0.47028174  0.01567811    -0.53400
C1364       C  0.77289301  0.47578189  0.05066690     0.10700
H1365       H  0.81837906  0.02374809  0.00707393     0.15200
H1366       H  0.79143333  0.48263470  0.10628766     0.01000
H1367       H  0.83784086  0.44981775  0.01508987     0.15500
H1368       H  0.77604772  0.45213523  0.00441252     0.15300
C1369       C  0.75968635  0.43428089  0.50516281     0.87100
C1370       C  0.78643208  0.43169540  0.52260413    -0.53100
C1371       C  0.78749308  0.43614380  0.56045244     0.10000
C1372       C  0.76235041  0.44555582  0.57698274     0.21000
C1373       C  0.74321535  0.41674659  0.52950595    -0.53800
C1374       C  0.74329646  0.42337236  0.56732505     0.10100
C1375       C  0.74855435  0.46016136  0.51736816    -0.53400
C1376       C  0.75445953  0.46896152  0.55216248     0.10700
H1377       H  0.80274403  0.42509581  0.50669388     0.15200
H1378       H  0.76310726  0.45002575  0.60753440     0.01000
H1379       H  0.73007446  0.40318531  0.51756402     0.15500
H1380       H  0.73064004  0.46650639  0.50570007     0.15300
C1381       C  0.75978779  0.43421371  0.46016102     0.87100
C1382       C  0.73300834  0.43190884  0.44268867    -0.53100
C1383       C  0.73204993  0.43623416  0.40461422     0.10000
C1384       C  0.75715121  0.44543195  0.38790472     0.21000
C1385       C  0.77620233  0.41644016  0.43635781    -0.53800
C1386       C  0.77603517  0.42295148  0.39830418     0.10100
C1387       C  0.77105549  0.45980813  0.44704646    -0.53400
C1388       C  0.76494771  0.46872892  0.41212787     0.10700
H1389       H  0.71670523  0.42533248  0.45867238     0.15200
H1390       H  0.75649661  0.44992939  0.35722819     0.01000
H1391       H  0.78923243  0.40262782  0.44866824     0.15500
H1392       H  0.78154022  0.47135261  0.46590491     0.15300
C1393       C  0.76088444  0.03084040  0.50378155     0.87100
C1394       C  0.73426968  0.03361576  0.52154409    -0.53100
C1395       C  0.73334338  0.02903504  0.55948843     0.10000
C1396       C  0.75849167  0.01944090  0.57593881     0.21000
C1397       C  0.77764932  0.04818196  0.52747653    -0.53800
C1398       C  0.77765696  0.04149174  0.56546914     0.10100
C1399       C  0.77186123  0.00483322  0.51649877    -0.53400
C1400       C  0.76612801  0.99602770  0.55164922     0.10700
H1401       H  0.71790128  0.04027759  0.50566998     0.15200
H1402       H  0.75784506  0.01492654  0.60661070     0.01000
H1403       H  0.79084982  0.06165945  0.51505170     0.15500
H1404       H  0.78971384  0.99843704  0.50481707     0.15300
C1405       C  0.76043915  0.03095104  0.45874027     0.87100
C1406       C  0.78709731  0.03291690  0.44073058    -0.53100
C1407       C  0.78777939  0.02848470  0.40280714     0.10000
C1408       C  0.76237297  0.01968143  0.38675314     0.21000
C1409       C  0.74402312  0.04889473  0.43469920    -0.53800
C1410       C  0.74363969  0.04228948  0.39685100     0.10100
C1411       C  0.74877758  0.00546882  0.44658920    -0.53400
C1412       C  0.75451700  0.99647407  0.41178821     0.10700
H1413       H  0.80363585  0.03908502  0.45632007     0.15200
H1414       H  0.76278907  0.01520063  0.35618934     0.01000
H1415       H  0.73109103  0.06267664  0.44695394     0.15500
H1416       H  0.73840068  0.99399379  0.46605473     0.15300
O1417       O  0.84368315  0.04541334  0.18452271    -0.57200
C1418       C  0.81373410  0.02902059  0.08470412     0.75400
O1419       O  0.78588232  0.08514069  0.09848450    -0.58300
C1420       C  0.83409705  0.05794574  0.21151967     0.75400
C1421       C  0.86474205  0.10592517  0.11781968     0.77800
Cd1422     Cd  0.82388159  0.07146240  0.13329005     1.37500
O1423       O  0.81111772  0.02759385  0.12015874    -0.57200
O1424       O  0.86856606  0.08229033  0.12190561    -0.56000
C1425       C  0.77282250  0.08758337  0.12816142     0.77800
O1426       O  0.84189969  0.11339863  0.11742370    -0.58400
O1427       O  0.82317141  0.04941242  0.07170003    -0.56800
O1428       O  0.81940350  0.07612076  0.20250581    -0.56800
O1429       O  0.78446726  0.08705737  0.15935467    -0.56000
O1430       O  0.70493080  0.02598392  0.12211335    -0.57200
C1431       C  0.68517112  0.06466052  0.21055772     0.75400
O1432       O  0.73295078  0.08349947  0.09710919    -0.58300
C1433       C  0.69624505  0.02412115  0.08902365     0.75400
C1434       C  0.65719223  0.11136394  0.11468328     0.77800
Cd1435     Cd  0.69358107  0.07177545  0.13109625     1.37500
O1436       O  0.67326834  0.05145799  0.18663984    -0.57200
O1437       O  0.65058768  0.08923726  0.12485770    -0.56000
C1438       C  0.74527655  0.08676080  0.12737320     0.77800
O1439       O  0.68050254  0.11466026  0.10800633    -0.58400
O1440       O  0.70059549  0.08084760  0.19772835    -0.56800
O1441       O  0.68485007  0.04363292  0.07611477    -0.56800
O1442       O  0.73305575  0.08573705  0.15794695    -0.56000
O1443       O  0.82812311  0.06209096  0.27852280    -0.57200
C1444       C  0.80993596  0.03403447  0.37844117     0.75400
O1445       O  0.86503647  0.00086157  0.36338609    -0.58300
C1446       C  0.84012566  0.05206354  0.25132858     0.75400
C1447       C  0.89157929  0.07869106  0.34386637     0.77800
Cd1448     Cd  0.85343091  0.04064935  0.32935384     1.37500
O1449       O  0.80869235  0.03158373  0.34302077    -0.57200
O1450       O  0.86814935  0.08388997  0.34324061    -0.56000
C1451       C  0.86411561  0.48794281  0.33332011     0.77800
O1452       O  0.89761755  0.05544200  0.34080948    -0.58400
O1453       O  0.83089406  0.04170258  0.39142098    -0.56800
O1454       O  0.85796447  0.03695787  0.26009502    -0.56800
O1455       O  0.86295319  0.00004602  0.30250495    -0.56000
O1456       O  0.79868149  0.42323459  0.33961250    -0.57200
C1457       C  0.83661968  0.40207129  0.25058552     0.75400
O1458       O  0.86016479  0.44714876  0.36362415    -0.58300
C1459       C  0.79732906  0.41557190  0.37344835     0.75400
C1460       C  0.88109435  0.37107533  0.34330652     0.77800
Cd1461     Cd  0.84334499  0.40954387  0.32952339     1.37500
O1462       O  0.82413351  0.38904975  0.27448335    -0.57200
O1463       O  0.85838138  0.36512131  0.33638666    -0.56000
C1464       C  0.86090432  0.46045646  0.33357037     0.77800
O1465       O  0.88566086  0.39445971  0.34781229    -0.58400
O1466       O  0.85173007  0.41842058  0.26326369    -0.56800
O1467       O  0.81622541  0.40308769  0.38581468    -0.56800
O1468       O  0.85570068  0.44948846  0.30306172    -0.56000
O1469       O  0.67786765  0.41933083  0.18753696    -0.57200
C1470       C  0.70593574  0.43484381  0.08628875     0.75400
O1471       O  0.73309746  0.37623971  0.10270391    -0.58300
C1472       C  0.68592479  0.40550132  0.21460459     0.75400
C1473       C  0.65399544  0.35867370  0.12247860     0.77800
Cd1474     Cd  0.69568515  0.39237776  0.13662032     1.37500
O1475       O  0.70860267  0.43630466  0.12168958    -0.57200
O1476       O  0.65049179  0.38243142  0.12503217    -0.56000
C1477       C  0.74667191  0.37576227  0.13208302     0.77800
O1478       O  0.67672987  0.35088996  0.12312978    -0.58400
O1479       O  0.69674788  0.41430066  0.07403678    -0.56800
O1480       O  0.69864536  0.38595800  0.20574916    -0.56800
O1481       O  0.73556628  0.37843120  0.16344473    -0.56000
O1482       O  0.81382375  0.43730021  0.12189423    -0.57200
C1483       C  0.83369602  0.39857346  0.21008702     0.75400
O1484       O  0.78611467  0.37899832  0.09926396    -0.58300
C1485       C  0.82268359  0.43960290  0.08890716     0.75400
C1486       C  0.86278685  0.35267559  0.11533846     0.77800
Cd1487     Cd  0.82584709  0.39161995  0.13126770     1.37500
O1488       O  0.84523277  0.41237239  0.18609216    -0.57200
O1489       O  0.86924646  0.37498674  0.12416768    -0.56000
C1490       C  0.77420488  0.37644912  0.13019313     0.77800
O1491       O  0.83941845  0.34895201  0.10988556    -0.58400
O1492       O  0.81929170  0.38157454  0.19751339    -0.56800
O1493       O  0.83426395  0.42031982  0.07613637    -0.56800
O1494       O  0.78683687  0.37817165  0.16022854    -0.56000
O1495       O  0.71971298  0.04198930  0.33908395    -0.57200
C1496       C  0.68151284  0.06140854  0.25123679     0.75400
O1497       O  0.66023972  0.01551400  0.36679632    -0.58300
C1498       C  0.72136810  0.04889993  0.37305209     0.75400
C1499       C  0.63722948  0.09359799  0.34469681     0.77800
Cd1500     Cd  0.67414135  0.05414909  0.33083880     1.37500
O1501       O  0.69419646  0.07396703  0.27502524    -0.57200
O1502       O  0.66007046  0.09869018  0.33711022    -0.56000
C1503       C  0.65734490  0.50274967  0.33713706     0.77800
O1504       O  0.63189053  0.07038431  0.34988858    -0.58400
O1505       O  0.66557848  0.04577217  0.26422617    -0.56800
O1506       O  0.70201579  0.05995358  0.38654234    -0.56800
O1507       O  0.65937559  0.01451230  0.30592644    -0.56000
O1508       O  0.68993481  0.39890050  0.28157677    -0.57200
C1509       C  0.71015950  0.42972299  0.38055369     0.75400
O1510       O  0.65684971  0.46184456  0.36705145    -0.58300
C1511       C  0.68035231  0.41150323  0.25432509     0.75400
C1512       C  0.62786245  0.38485047  0.34631103     0.77800
Cd1513     Cd  0.66684027  0.42242824  0.33205960     1.37500
O1514       O  0.71158419  0.43135018  0.34495781    -0.57200
O1515       O  0.65112692  0.37890420  0.34684146    -0.56000
C1516       C  0.65502635  0.47509192  0.33716717     0.77800
O1517       O  0.62267972  0.40827061  0.34232154    -0.58400
O1518       O  0.68925468  0.42207740  0.39400113    -0.56800
O1519       O  0.66528154  0.42932333  0.26294291    -0.56800
O1520       O  0.65443439  0.46330244  0.30622403    -0.56000
O1521       O  0.97072531  0.29094569  0.83904010    -0.57200
C1522       C  0.93559372  0.31188409  0.74876275     0.75400
O1523       O  0.91365480  0.26610642  0.86462548    -0.58300
C1524       C  0.97222848  0.29975105  0.87202764     0.75400
C1525       C  0.88639459  0.34014137  0.84245418     0.77800
Cd1526     Cd  0.92620654  0.30416766  0.82768689     1.37500
O1527       O  0.94609661  0.32587768  0.77310184    -0.57200
O1528       O  0.90884768  0.34742817  0.83627738    -0.56000
C1529       C  0.90875628  0.25325880  0.83544750     0.77800
O1530       O  0.88288950  0.31644400  0.84526209    -0.58400
O1531       O  0.92117854  0.29458834  0.76095186    -0.56800
O1532       O  0.95333181  0.31254638  0.88337931    -0.56800
O1533       O  0.91001080  0.26462041  0.80394887    -0.56000
O1534       O  0.96139790  0.18041802  0.84492101    -0.57200
C1535       C  0.92743480  0.16319801  0.75667240     0.75400
O1536       O  0.87342066  0.15585067  0.85018766    -0.58300
C1537       C  0.96011836  0.18081251  0.88058618     0.75400
C1538       C  0.90531698  0.22579670  0.83684039     0.77800
Cd1539     Cd  0.91602966  0.17310500  0.83453527     1.37500
O1540       O  0.94068802  0.15350623  0.78307967    -0.57200
O1541       O  0.90380154  0.21335898  0.80656861    -0.56000
C1542       C  0.88049503  0.13276662  0.85001475     0.77800
O1543       O  0.90701434  0.21323058  0.86737877    -0.58400
O1544       O  0.90922152  0.17751719  0.76624302    -0.56800
O1545       O  0.93891269  0.17522978  0.89520183    -0.56800
O1546       O  0.90402481  0.12865602  0.84693353    -0.56000
O1547       O  0.58054114  0.31173843  0.78399252    -0.57200
C1548       C  0.56023114  0.28528944  0.88195266     0.75400
O1549       O  0.61266413  0.25156583  0.86955296    -0.58300
C1550       C  0.59396701  0.30154394  0.75846282     0.75400
C1551       C  0.63942823  0.33308397  0.85267169     0.77800
Cd1552     Cd  0.60474899  0.29250274  0.83685821     1.37500
O1553       O  0.55936214  0.28536285  0.84625643    -0.57200
O1554       O  0.61612671  0.33714291  0.84691218    -0.56000
C1555       C  0.61626288  0.23989341  0.83891926     0.77800
O1556       O  0.64645413  0.31004159  0.85523903    -0.58400
O1557       O  0.58132080  0.29065741  0.89686780    -0.56800
O1558       O  0.61206130  0.28736334  0.76920987    -0.56800
O1559       O  0.61938724  0.25321547  0.80942310    -0.56000
O1560       O  0.55080361  0.17885515  0.83916873    -0.57200
C1561       C  0.58362792  0.15456398  0.74731688     0.75400
O1562       O  0.60852786  0.19848007  0.86462795    -0.58300
C1563       C  0.54808185  0.16797116  0.87086680     0.75400
C1564       C  0.63352594  0.12508079  0.83971099     0.77800
Cd1565     Cd  0.59412708  0.16232485  0.82606121     1.37500
O1566       O  0.57181214  0.14242458  0.77285648    -0.57200
O1567       O  0.61076295  0.11831856  0.83501749    -0.56000
C1568       C  0.61275146  0.21251223  0.83604343     0.77800
O1569       O  0.63753890  0.14870257  0.84162286    -0.58400
O1570       O  0.59982608  0.17051874  0.75808380    -0.56800
O1571       O  0.56572499  0.15285448  0.88080850    -0.56800
O1572       O  0.61052817  0.20251651  0.80392484    -0.56000
O1573       O  0.59026386  0.16251314  0.68132235    -0.57200
C1574       C  0.55911609  0.18450078  0.58365875     0.75400
O1575       O  0.58568500  0.09563150  0.61468713    -0.58300
C1576       C  0.57906197  0.15000623  0.70721050     0.75400
C1577       C  0.51894634  0.12359292  0.63008231     0.77800
Cd1578     Cd  0.56987008  0.13896208  0.62928628     1.37500
O1579       O  0.55949782  0.18505304  0.61934274    -0.57200
O1580       O  0.53212278  0.12371971  0.65979161    -0.56000
C1581       C  0.60896286  0.10120113  0.61426547     0.77800
O1582       O  0.53034929  0.12638258  0.59886462    -0.58400
O1583       O  0.56533069  0.16347416  0.56890986    -0.56800
O1584       O  0.56383260  0.13294941  0.69694529    -0.56800
O1585       O  0.61425044  0.12462043  0.61655396    -0.56000
O1586       O  0.96084135  0.18878022  0.62504461    -0.57200
C1587       C  0.93269901  0.15786693  0.71684526     0.75400
O1588       O  0.92588782  0.10401942  0.62147517    -0.58300
C1589       C  0.95492468  0.18835084  0.59048639     0.75400
C1590       C  0.99158767  0.12508909  0.63263187     0.77800
Cd1591     Cd  0.94262040  0.14567844  0.63909801     1.37500
O1592       O  0.92070129  0.16891313  0.69027091    -0.57200
O1593       O  0.98101911  0.12756688  0.66445250    -0.56000
C1594       C  0.90281103  0.11056537  0.62198073     0.77800
O1595       O  0.97805437  0.12817020  0.60349510    -0.58400
O1596       O  0.94934615  0.14172620  0.70746791    -0.56800
O1597       O  0.94159793  0.16974090  0.58004320    -0.56800
O1598       O  0.89802826  0.13382441  0.62778088    -0.56000
O1599       O  0.95291254  0.27693065  0.62049201    -0.57200
C1600       C  0.93970513  0.31546834  0.70832076     0.75400
O1601       O  0.98906013  0.33002015  0.59634011    -0.58300
C1602       C  0.94820393  0.27680267  0.58548404     0.75400
C1603       C  0.91053358  0.36264079  0.61543521     0.77800
Cd1604     Cd  0.94787874  0.32333324  0.62930589     1.37500
O1605       O  0.92963750  0.30098806  0.68416592    -0.57200
O1606       O  0.90455832  0.33987066  0.62282896    -0.56000
C1607       C  0.00113174  0.33286405  0.62690438     0.77800
O1608       O  0.93386968  0.36703749  0.61028256    -0.58400
O1609       O  0.95342916  0.33330764  0.69592951    -0.56800
O1610       O  0.94128568  0.29784759  0.57091059    -0.56800
O1611       O  0.98822429  0.33450766  0.65675370    -0.56000
O1612       O  0.60060425  0.29357251  0.69297993    -0.57200
C1613       C  0.57725568  0.27034190  0.59567206     0.75400
O1614       O  0.54236442  0.32622769  0.60072229    -0.58300
C1615       C  0.58908135  0.30601873  0.71825686     0.75400
C1616       C  0.61840760  0.35313443  0.62275329     0.77800
Cd1617     Cd  0.58033789  0.31585044  0.63934516     1.37500
O1618       O  0.56874687  0.27114625  0.62901121    -0.57200
O1619       O  0.62400976  0.33027875  0.63051361    -0.56000
C1620       C  0.52870442  0.33106096  0.62917533     0.77800
O1621       O  0.59510376  0.35847844  0.61948220    -0.58400
O1622       O  0.58928558  0.28966562  0.58397666    -0.56800
O1623       O  0.57334105  0.32267476  0.70715548    -0.56800
O1624       O  0.53959420  0.33147687  0.66092624    -0.56000
C1625       C  0.50946958  0.28144718  0.95959442     0.87100
C1626       C  0.53629765  0.28366768  0.94262650    -0.53100
C1627       C  0.53763380  0.27947788  0.90480270     0.10000
C1628       C  0.51266451  0.27073712  0.88750983     0.21000
C1629       C  0.99326916  0.29946775  0.93519388    -0.53800
C1630       C  0.99371987  0.29313265  0.89718997     0.10100
C1631       C  0.49816626  0.25594155  0.94664015    -0.53400
C1632       C  0.50442415  0.24736295  0.91174226     0.10700
H1633       H  0.55254865  0.28981096  0.95889594     0.15200
H1634       H  0.51376229  0.26647712  0.85690436     0.01000
H1635       H  0.97998151  0.31304289  0.94711723     0.15500
H1636       H  0.48780234  0.24413311  0.96568120     0.15300
C1637       C  0.50986456  0.28095993  0.00460609     0.87100
C1638       C  0.98323891  0.28308982  0.02228478    -0.53100
C1639       C  0.98240006  0.27802139  0.06008556     0.10000
C1640       C  0.50761128  0.26860783  0.07641842     0.21000
C1641       C  0.52640462  0.29825801  0.02895227    -0.53800
C1642       C  0.52644304  0.29106910  0.06677879     0.10100
C1643       C  0.52120742  0.25497858  0.01661703    -0.53400
C1644       C  0.51556042  0.24567825  0.05147843     0.10700
H1645       H  0.96683665  0.28985151  0.00656973     0.15200
H1646       H  0.50693777  0.26362975  0.10693815     0.01000
H1647       H  0.53936269  0.31217179  0.01704387     0.15500
H1648       H  0.53921900  0.24904731  0.00493139     0.15300
C1649       C  0.51041628  0.18474160  0.95869001     0.87100
C1650       C  0.98366995  0.18240682  0.94154786    -0.53100
C1651       C  0.98240775  0.18717271  0.90372845     0.10000
C1652       C  0.50732604  0.19677619  0.88675373     0.21000
C1653       C  0.52700045  0.16744430  0.93414818    -0.53800
C1654       C  0.52664069  0.17448626  0.89623803     0.10100
C1655       C  0.52133877  0.21062549  0.94621423    -0.53400
C1656       C  0.51508785  0.21980850  0.91150548     0.10700
H1657       H  0.96750478  0.17556587  0.95760706     0.15200
H1658       H  0.50629722  0.20162778  0.85621091     0.01000
H1659       H  0.54034570  0.15374443  0.94596301     0.15500
H1660       H  0.53161352  0.22213794  0.96538280     0.15300
C1661       C  0.51000135  0.18440673  0.00366064     0.87100
C1662       C  0.53663924  0.18214856  0.02122956    -0.53100
C1663       C  0.53745997  0.18643290  0.05909266     0.10000
C1664       C  0.51211792  0.19520765  0.07566597     0.21000
C1665       C  0.99364773  0.16643264  0.02761054    -0.53800
C1666       C  0.99341141  0.17284061  0.06552277     0.10100
C1667       C  0.49841541  0.21005375  0.01618852    -0.53400
C1668       C  0.50399780  0.21863794  0.05124030     0.10700
H1669       H  0.55314303  0.17606734  0.00529338     0.15200
H1670       H  0.51273957  0.19946888  0.10629290     0.01000
H1671       H  0.98071869  0.15279885  0.01534901     0.15500
H1672       H  0.48040390  0.21613813  0.00454490     0.15300
C1673       C  0.56045746  0.23647222  0.50653986     0.87100
C1674       C  0.57907655  0.24975697  0.53274193    -0.53100
C1675       C  0.57084904  0.24932910  0.57029684     0.10000
C1676       C  0.54578628  0.23327457  0.57723775     0.21000
C1677       C  0.55920151  0.20914324  0.52343609    -0.53800
C1678       C  0.55287015  0.20748493  0.56049761     0.10100
C1679       C  0.53659712  0.25180138  0.51807237    -0.53400
C1680       C  0.52500047  0.24539999  0.55082406     0.10700
H1681       H  0.59425265  0.26181010  0.52230700     0.15200
H1682       H  0.53988644  0.23223005  0.60731000     0.01000
H1683       H  0.56608050  0.19274543  0.50796089     0.15500
H1684       H  0.52907847  0.26670109  0.49973183     0.15300
C1685       C  0.55913094  0.23529564  0.46145023     0.87100
C1686       C  0.57522290  0.21760811  0.43658004    -0.53100
C1687       C  0.56681515  0.21665889  0.39942283     0.10000
C1688       C  0.54367986  0.23457455  0.39047212     0.21000
C1689       C  0.56002365  0.26115987  0.44141304    -0.53800
C1690       C  0.55311532  0.26095151  0.40427303     0.10100
C1691       C  0.53285346  0.22443861  0.45366970    -0.53400
C1692       C  0.52264983  0.22554748  0.41849578     0.10700
H1693       H  0.58980428  0.20505425  0.44792045     0.15200
H1694       H  0.53750542  0.23451240  0.36051446     0.01000
H1695       H  0.56759642  0.27790784  0.45508097     0.15500
H1696       H  0.52370725  0.21491891  0.47681838     0.15300
C1697       C  0.95955435  0.23090185  0.50300565     0.87100
C1698       C  0.95627230  0.20653712  0.52605340    -0.53100
C1699       C  0.96262796  0.20841037  0.56330465     0.10000
C1700       C  0.97427727  0.23436226  0.57426462     0.21000
C1701       C  0.94483452  0.25143622  0.52534339    -0.53800
C1702       C  0.95304372  0.25384175  0.56249968     0.10100
C1703       C  0.98655229  0.24001573  0.51053510    -0.53400
C1704       C  0.99630068  0.23966201  0.54610916     0.10700
H1705       H  0.94765813  0.18967244  0.51418078     0.15200
H1706       H  0.98013733  0.23551868  0.60429907     0.01000
H1707       H  0.93145207  0.26456207  0.51227853     0.15500
H1708       H  0.99619414  0.24853351  0.48695130     0.15300
C1709       C  0.95836525  0.22706593  0.45792663     0.87100
C1710       C  0.95838727  0.25332880  0.43801655    -0.53100
C1711       C  0.96436400  0.25327032  0.40077720     0.10000
C1712       C  0.97291738  0.22719414  0.38688225     0.21000
C1713       C  0.94060963  0.21112249  0.43320234    -0.53800
C1714       C  0.94895450  0.20982767  0.39565273     0.10100
C1715       C  0.98286445  0.21238984  0.44781089    -0.53400
C1716       C  0.99431104  0.21788759  0.41446836     0.10700
H1717       H  0.95088028  0.27021171  0.45156492     0.15200
H1718       H  0.97880345  0.22706997  0.35677901     0.01000
H1719       H  0.92634597  0.19854799  0.44507072     0.15500
H1720       H  0.99003839  0.19765814  0.46677672     0.15300
O1721       O  0.55729217  0.28229248  0.34385186    -0.57200
C1722       C  0.57854929  0.31685191  0.25540995     0.75400
O1723       O  0.52975654  0.34223694  0.36404024    -0.58300
C1724       C  0.55882864  0.28320547  0.37943565     0.75400
C1725       C  0.60784139  0.36545391  0.34686969     0.77800
Cd1726     Cd  0.56874983  0.32825127  0.33277253     1.37500
O1727       O  0.58831827  0.30326067  0.28148786    -0.57200
O1728       O  0.61288930  0.34187043  0.34619961    -0.56000
C1729       C  0.51776367  0.34315075  0.33310436     0.77800
O1730       O  0.58466957  0.37158579  0.34502926    -0.58400
O1731       O  0.56460150  0.33521311  0.26532899    -0.56800
O1732       O  0.56636768  0.30413462  0.39289855    -0.56800
O1733       O  0.53041343  0.34196738  0.30293423    -0.56000
O1734       O  0.92091058  0.29473732  0.27571424    -0.57200
C1735       C  0.95670697  0.27455611  0.37536659     0.75400
O1736       O  0.97757053  0.33720135  0.36136272    -0.58300
C1737       C  0.93346611  0.30518551  0.24925788     0.75400
C1738       C  0.90162646  0.35224593  0.34239259     0.77800
Cd1739     Cd  0.94270765  0.31759696  0.32721781     1.37500
O1740       O  0.95970051  0.27372257  0.33998626    -0.57200
O1741       O  0.89751462  0.32875193  0.33793394    -0.56000
C1742       C  0.99054181  0.34033986  0.33166501     0.77800
O1743       O  0.92451629  0.35914169  0.34285433    -0.58400
O1744       O  0.94583901  0.29428912  0.38785712    -0.56800
O1745       O  0.95055093  0.32062185  0.25885610    -0.56800
O1746       O  0.97981532  0.33656117  0.30033435    -0.56000
O1747       O  0.94130239  0.31001514  0.18296474    -0.57200
C1748       C  0.96023290  0.28371514  0.08394876     0.75400
O1749       O  0.90646283  0.25201601  0.09654916    -0.58300
C1750       C  0.92822263  0.30011087  0.20930981     0.75400
C1751       C  0.88122220  0.33173103  0.11542550     0.77800
Cd1752     Cd  0.91652621  0.29110998  0.13104947     1.37500
O1753       O  0.96160684  0.28256931  0.11958958    -0.57200
O1754       O  0.90463412  0.33581152  0.11959535    -0.56000
C1755       C  0.90427214  0.23897165  0.12654039     0.77800
O1756       O  0.87431862  0.30869406  0.11489357    -0.58400
O1757       O  0.93906785  0.29029365  0.07005554    -0.56800
O1758       O  0.91010164  0.28593473  0.19954703    -0.56800
O1759       O  0.90315131  0.25086921  0.15734163    -0.56000
O1760       O  0.96910576  0.17483364  0.12273983    -0.57200
C1761       C  0.93352007  0.15167766  0.21153603     0.75400
O1762       O  0.91152998  0.19894424  0.09705853    -0.58300
C1763       C  0.97148322  0.16607742  0.08983201     0.75400
C1764       C  0.88572630  0.12402030  0.11754218     0.77800
Cd1765     Cd  0.92470956  0.16046362  0.13277140     1.37500
O1766       O  0.94540973  0.13901418  0.18683514    -0.57200
O1767       O  0.90819205  0.11702021  0.12478754    -0.56000
C1768       C  0.90704303  0.21142440  0.12680008     0.77800
O1769       O  0.88189849  0.14763741  0.11342214    -0.58400
O1770       O  0.91784892  0.16814121  0.19979139    -0.56800
O1771       O  0.95309848  0.15299977  0.07778837    -0.56800
O1772       O  0.90838210  0.19956464  0.15788951    -0.56000
O1773       O  0.55011582  0.28792073  0.12447614    -0.57200
C1774       C  0.58319921  0.31202277  0.21543325     0.75400
O1775       O  0.60803294  0.26697414  0.09943758    -0.58300
C1776       C  0.54773073  0.29790126  0.09207142     0.75400
C1777       C  0.63287178  0.34066886  0.12243859     0.77800
Cd1778     Cd  0.59364893  0.30381238  0.13684676     1.37500
O1779       O  0.57269797  0.32534681  0.18980849    -0.57200
O1780       O  0.61014010  0.34771593  0.12733143    -0.56000
C1781       C  0.61261541  0.25348267  0.12850301     0.77800
O1782       O  0.63685818  0.31699638  0.12068492    -0.58400
O1783       O  0.59807516  0.29460709  0.20484791    -0.56800
O1784       O  0.56558153  0.31236679  0.08144269    -0.56800
O1785       O  0.61075611  0.26412825  0.16021992    -0.56000
O1786       O  0.57952745  0.15583966  0.18277436    -0.57200
C1787       C  0.55989166  0.18087211  0.08265240     0.75400
O1788       O  0.61403792  0.21396450  0.09610311    -0.58300
C1789       C  0.59321135  0.16567715  0.20819749     0.75400
C1790       C  0.63895723  0.13252113  0.11455985     0.77800
Cd1791     Cd  0.60410516  0.17370517  0.12929332     1.37500
O1792       O  0.55899860  0.18267146  0.11820094    -0.57200
O1793       O  0.61593064  0.12879135  0.12258764    -0.56000
C1794       C  0.61601086  0.22601746  0.12671454     0.77800
O1795       O  0.64571709  0.15544554  0.10988192    -0.58400
O1796       O  0.58082376  0.17378844  0.06862973    -0.56800
O1797       O  0.61171961  0.17904563  0.19716366    -0.56800
O1798       O  0.61738505  0.21308595  0.15687140    -0.56000
O1799       O  0.95041910  0.18614401  0.33823109    -0.57200
C1800       C  0.93765807  0.14764204  0.25188004     0.75400
O1801       O  0.98708102  0.13284840  0.36606110    -0.58300
C1802       C  0.94485576  0.18665709  0.37293737     0.75400
C1803       C  0.91059642  0.09902973  0.34452606     0.77800
Cd1804     Cd  0.94651186  0.13949177  0.33072807     1.37500
O1805       O  0.92599443  0.16060860  0.27646680    -0.57200
O1806       O  0.90400202  0.12210628  0.34146248    -0.56000
C1807       C  0.00009662  0.13162663  0.33601863     0.77800
O1808       O  0.93419118  0.09451777  0.34517359    -0.58400
O1809       O  0.95315515  0.13103025  0.26375275    -0.56800
O1810       O  0.93812002  0.16568690  0.38778435    -0.56800
O1811       O  0.98807165  0.13082792  0.30530552    -0.56000
O1812       O  0.56643848  0.19547738  0.33994871    -0.57200
C1813       C  0.58815735  0.16150621  0.24857028     0.75400
O1814       O  0.59430024  0.10806405  0.34625404    -0.58300
C1815       C  0.57379599  0.19570279  0.37391287     0.75400
C1816       C  0.52765856  0.13424910  0.33535667     0.77800
Cd1817     Cd  0.57902465  0.15097760  0.32778969     1.37500
O1818       O  0.60027613  0.17308661  0.27403661    -0.57200
O1819       O  0.53933541  0.13448672  0.30420399    -0.56000
C1820       C  0.61758757  0.11340480  0.34370262     0.77800
O1821       O  0.54045007  0.13917373  0.36457717    -0.58400
O1822       O  0.57162083  0.14581132  0.25961639    -0.56800
O1823       O  0.58563133  0.17614457  0.38558712    -0.56800
O1824       O  0.62302172  0.13639937  0.33694631    -0.56000
O1825       O  0.70556638  0.93833236  0.84166594    -0.57200
C1826       C  0.68690101  0.90084251  0.75476979     0.75400
O1827       O  0.73387751  0.88339004  0.86813853    -0.58300
C1828       C  0.69674005  0.94056318  0.87465370     0.75400
C1829       C  0.65759399  0.85402822  0.85199161     0.77800
Cd1830     Cd  0.69416225  0.89273610  0.83405379     1.37500
O1831       O  0.67434712  0.91346489  0.77878644    -0.57200
O1832       O  0.65099632  0.87621593  0.84179572    -0.56000
C1833       C  0.74555444  0.87708641  0.83833260     0.77800
O1834       O  0.68096503  0.85032667  0.85779019    -0.58400
O1835       O  0.70247420  0.88459000  0.76740447    -0.56800
O1836       O  0.68541589  0.92127484  0.88806144    -0.56800
O1837       O  0.73270891  0.87513424  0.80851254    -0.56000
O1838       O  0.84303728  0.91836473  0.77631964    -0.57200
C1839       C  0.81327242  0.93534141  0.87646742     0.75400
O1840       O  0.78646619  0.88055929  0.86520446    -0.58300
C1841       C  0.83349685  0.90578251  0.74949055     0.75400
C1842       C  0.86483982  0.85843451  0.84295539     0.77800
Cd1843     Cd  0.82353074  0.89273214  0.82788133     1.37500
O1844       O  0.80923035  0.93650372  0.84125416    -0.57200
O1845       O  0.86822007  0.88217763  0.84019191    -0.56000
C1846       C  0.77304248  0.87630880  0.83647194     0.77800
O1847       O  0.84216201  0.85071322  0.84235810    -0.58400
O1848       O  0.82409939  0.91535058  0.88873444    -0.56800
O1849       O  0.81862026  0.88794717  0.75868367    -0.56800
O1850       O  0.78418034  0.87518334  0.80487537    -0.56000
O1851       O  0.82357186  0.57092664  0.68838604    -0.57200
C1852       C  0.79952830  0.54776344  0.58988402     0.75400
O1853       O  0.88772255  0.56831887  0.61481948    -0.58300
C1854       C  0.83794407  0.56031859  0.71262009     0.75400
C1855       C  0.86300156  0.00169706  0.62883141     0.77800
Cd1856     Cd  0.84574404  0.55278536  0.63364954     1.37500
O1857       O  0.80111627  0.53962497  0.62348477    -0.57200
O1858       O  0.86017991  0.51291779  0.65978183    -0.56000
C1859       C  0.88263675  0.59157132  0.62000654     0.77800
O1860       O  0.86073236  0.51488262  0.59885688    -0.58400
O1861       O  0.81852778  0.55988852  0.57738354    -0.56800
O1862       O  0.85557210  0.54636149  0.70029805    -0.56800
O1863       O  0.85978128  0.59720714  0.62691969    -0.56000
O1864       O  0.82927236  0.89971558  0.68264424    -0.57200
C1865       C  0.80962946  0.92980659  0.58419952     0.75400
O1866       O  0.86429562  0.96158561  0.59832295    -0.58300
C1867       C  0.83983063  0.91122924  0.70970984     0.75400
C1868       C  0.89142500  0.88315876  0.61638064     0.77800
Cd1869     Cd  0.85359419  0.92184930  0.63187427     1.37500
O1870       O  0.80848802  0.93097820  0.61978698    -0.57200
O1871       O  0.86818891  0.87803923  0.62039243    -0.56000
C1872       C  0.86564422  0.97413403  0.62853778     0.77800
O1873       O  0.89729127  0.90648925  0.61653738    -0.58400
O1874       O  0.83064060  0.92274157  0.57040732    -0.56800
O1875       O  0.85653944  0.92742568  0.70088151    -0.56800
O1876       O  0.86588029  0.96172835  0.65929386    -0.56000
O1877       O  0.71980842  0.92452384  0.62549084    -0.57200
C1878       C  0.68348053  0.90463623  0.71421948     0.75400
O1879       O  0.66250478  0.94974693  0.59721518    -0.58300
C1880       C  0.72137326  0.91682108  0.59187133     0.75400
C1881       C  0.63790113  0.87285021  0.62165709     0.77800
Cd1882     Cd  0.67483993  0.91169864  0.63499111     1.37500
O1883       O  0.69550493  0.89153098  0.69017956    -0.57200
O1884       O  0.66090850  0.86748370  0.62786670    -0.56000
C1885       C  0.65692780  0.96253725  0.62625062     0.77800
O1886       O  0.63233146  0.89614707  0.61769060    -0.58400
O1887       O  0.66813125  0.92112100  0.70161571    -0.56800
O1888       O  0.70231555  0.90497517  0.57936513    -0.56800
O1889       O  0.65692376  0.95091575  0.65758690    -0.56000
O1890       O  0.69139082  0.56369033  0.68109939    -0.57200
C1891       C  0.71114869  0.53487433  0.58342151     0.75400
O1892       O  0.65881083  0.50281067  0.59543799    -0.58300
C1893       C  0.68076185  0.55213710  0.70839178     0.75400
C1894       C  0.62880407  0.58106996  0.61495837     0.77800
Cd1895     Cd  0.66698965  0.54221708  0.63052166     1.37500
O1896       O  0.71193195  0.53208831  0.61890858    -0.57200
O1897       O  0.65208556  0.58645886  0.61725288    -0.56000
C1898       C  0.65452448  0.99015498  0.62532066     0.77800
O1899       O  0.62330125  0.55766334  0.61657230    -0.58400
O1900       O  0.69049198  0.54320126  0.56974200    -0.56800
O1901       O  0.66429651  0.53575201  0.69983955    -0.56800
O1902       O  0.65171066  0.50210663  0.65550542    -0.56000
O1903       O  0.67740816  0.54524506  0.77533852    -0.57200
C1904       C  0.70542123  0.52979708  0.87602506     0.75400
O1905       O  0.73350353  0.58387357  0.86189101    -0.58300
C1906       C  0.68660329  0.55801321  0.74803845     0.75400
C1907       C  0.65451478  0.60714803  0.83951498     0.77800
Cd1908     Cd  0.69579082  0.57219443  0.82576318     1.37500
O1909       O  0.70737092  0.52789173  0.84053777    -0.57200
O1910       O  0.65083564  0.58343134  0.83766919    -0.56000
C1911       C  0.74699611  0.58759460  0.83292872     0.77800
O1912       O  0.67730368  0.61449197  0.83815947    -0.58400
O1913       O  0.69678481  0.55067555  0.88830258    -0.56800
O1914       O  0.70056211  0.57661029  0.75657276    -0.56800
O1915       O  0.73580850  0.58843090  0.80134997    -0.56000
O1916       O  0.81537609  0.52622458  0.84043321    -0.57200
C1917       C  0.83444499  0.56400414  0.75308234     0.75400
O1918       O  0.78616034  0.58087603  0.86507120    -0.58300
C1919       C  0.82332444  0.52402549  0.87393536     0.75400
C1920       C  0.86212160  0.61184125  0.84958311     0.77800
Cd1921     Cd  0.82638808  0.57203645  0.83207768     1.37500
O1922       O  0.84810021  0.55264848  0.77748392    -0.57200
O1923       O  0.86921044  0.58940392  0.84218339    -0.56000
C1924       C  0.77454959  0.58687206  0.83491124     0.77800
O1925       O  0.83851095  0.61547586  0.85271303    -0.58400
O1926       O  0.81752817  0.57884346  0.76523664    -0.56800
O1927       O  0.83423195  0.54337486  0.88738078    -0.56800
O1928       O  0.78757389  0.58883266  0.80516291    -0.56000
C1929       C  0.71123239  0.98189135  0.95877920     0.87100
C1930       C  0.70790776  0.50823177  0.93937354    -0.53100
C1931       C  0.71255313  0.50847898  0.90142994     0.10000
C1932       C  0.72312381  0.98301855  0.88677455     0.21000
C1933       C  0.69438907  0.96428854  0.93533054    -0.53800
C1934       C  0.70150465  0.96353475  0.89754694     0.10100
C1935       C  0.73726621  0.97084315  0.94718286    -0.53400
C1936       C  0.74629984  0.97625296  0.91213367     0.10700
H1937       H  0.70054844  0.52473968  0.95404499     0.15200
H1938       H  0.72787027  0.98321486  0.85622570     0.01000
H1939       H  0.68122734  0.95089783  0.94803571     0.15500
H1940       H  0.74278399  0.95250361  0.95878854     0.15300
C1941       C  0.71107884  0.98311784  0.00404860     0.87100
C1942       C  0.70791681  0.95673623  0.02320873    -0.53100
C1943       C  0.71259142  0.95625990  0.06114065     0.10000
C1944       C  0.72278543  0.98140374  0.07619533     0.21000
C1945       C  0.69430611  0.50094265  0.02766320    -0.53800
C1946       C  0.70130978  0.50139126  0.06552143     0.10100
C1947       C  0.73700672  0.99372689  0.01591003    -0.53400
C1948       C  0.74596250  0.98784881  0.05080590     0.10700
H1949       H  0.70072222  0.94029728  0.00839255     0.15200
H1950       H  0.72753155  0.98103734  0.10672855     0.01000
H1951       H  0.68117221  0.51454209  0.01509918     0.15500
H1952       H  0.74841452  0.00420252  0.99655053     0.15300
C1953       C  0.80784765  0.98250135  0.95862863     0.87100
C1954       C  0.81077732  0.95634711  0.93958003    -0.53100
C1955       C  0.80616037  0.95650006  0.90164832     0.10000
C1956       C  0.79611723  0.98200401  0.88664552     0.21000
C1957       C  0.82489295  0.50002367  0.93505564    -0.53800
C1958       C  0.81800791  0.50103079  0.89720944     0.10100
C1959       C  0.78190618  0.99376952  0.94690513    -0.53400
C1960       C  0.77290436  0.98864257  0.91195827     0.10700
H1961       H  0.81793820  0.93963558  0.95442175     0.15200
H1962       H  0.79143299  0.98210482  0.85609004     0.01000
H1963       H  0.83812559  0.51320294  0.94767742     0.15500
H1964       H  0.77634509  0.01197735  0.95841801     0.15300
C1965       C  0.80790203  0.98100737  0.00382174     0.87100
C1966       C  0.81074261  0.50732480  0.02217873    -0.53100
C1967       C  0.80613049  0.50761240  0.06005211     0.10000
C1968       C  0.79625393  0.98255301  0.07594528     0.21000
C1969       C  0.82466525  0.96316744  0.02774899    -0.53800
C1970       C  0.81769774  0.96260937  0.06564527     0.10100
C1971       C  0.78193834  0.97044328  0.01599531    -0.53400
C1972       C  0.77302881  0.97622628  0.05082833     0.10700
H1973       H  0.81785927  0.52384480  0.00698497     0.15200
H1974       H  0.79157590  0.98289239  0.10650552     0.01000
H1975       H  0.83766997  0.94951887  0.01535560     0.15500
H1976       H  0.77052660  0.96001962  0.99692916     0.15300
C1977       C  0.75955828  0.93431914  0.50514821     0.87100
C1978       C  0.78630066  0.93168450  0.52258144    -0.53100
C1979       C  0.78736826  0.93611273  0.56043231     0.10000
C1980       C  0.76224006  0.94555742  0.57697082     0.21000
C1981       C  0.74306274  0.91679905  0.52945439    -0.53800
C1982       C  0.74315821  0.92340119  0.56727391     0.10100
C1983       C  0.74847358  0.96022149  0.51737276    -0.53400
C1984       C  0.75438570  0.96900314  0.55217792     0.10700
H1985       H  0.80260142  0.92506500  0.50666402     0.15200
H1986       H  0.76300273  0.95000262  0.60753012     0.01000
H1987       H  0.72991133  0.90325340  0.51749704     0.15500
H1988       H  0.73059746  0.96663644  0.50565946     0.15300
C1989       C  0.75965480  0.93424527  0.46016408     0.87100
C1990       C  0.73286786  0.93200979  0.44271356    -0.53100
C1991       C  0.73191655  0.93632765  0.40464412     0.10000
C1992       C  0.75703715  0.94547454  0.38791866     0.21000
C1993       C  0.77601449  0.91642663  0.43635347    -0.53800
C1994       C  0.77587231  0.92295507  0.39830385     0.10100
C1995       C  0.77099402  0.95980578  0.44705961    -0.53400
C1996       C  0.76491990  0.96874141  0.41213763     0.10700
H1997       H  0.71655921  0.92544452  0.45869531     0.15200
H1998       H  0.75638169  0.94997165  0.35724226     0.01000
H1999       H  0.78902893  0.90260070  0.44866584     0.15500
H2000       H  0.78151082  0.97132035  0.46592551     0.15300
C2001       C  0.76085169  0.53078869  0.50380324     0.87100
C2002       C  0.73426072  0.53352460  0.52164147    -0.53100
C2003       C  0.73338932  0.52891825  0.55957872     0.10000
C2004       C  0.75856379  0.51934041  0.57594969     0.21000
C2005       C  0.77764187  0.54813204  0.52749218    -0.53800
C2006       C  0.77770586  0.54139981  0.56547691     0.10100
C2007       C  0.77187442  0.50479311  0.51645072    -0.53400
C2008       C  0.76619748  0.49596900  0.55160962     0.10700
H2009       H  0.71786280  0.54017024  0.50582020     0.15200
H2010       H  0.75795153  0.51479606  0.60661378     0.01000
H2011       H  0.79082982  0.56161724  0.51505758     0.15500
H2012       H  0.78976018  0.49847741  0.50477903     0.15300
C2013       C  0.76033661  0.53089245  0.45876333     0.87100
C2014       C  0.78697385  0.53288721  0.44070353    -0.53100
C2015       C  0.78763271  0.52846154  0.40277966     0.10000
C2016       C  0.76222296  0.51966027  0.38675939     0.21000
C2017       C  0.74389108  0.54883580  0.43478085    -0.53800
C2018       C  0.74350197  0.54227231  0.39692002     0.10100
C2019       C  0.74867744  0.50540255  0.44660238    -0.53400
C2020       C  0.75442327  0.49642453  0.41178779     0.10700
H2021       H  0.80352444  0.53904299  0.45627497     0.15200
H2022       H  0.76261087  0.51519492  0.35618971     0.01000
H2023       H  0.73098133  0.56262553  0.44706809     0.15500
H2024       H  0.73835051  0.49389793  0.46608724     0.15300
O2025       O  0.84356356  0.54530198  0.18439385    -0.57200
C2026       C  0.81318745  0.52896993  0.08464281     0.75400
O2027       O  0.78559279  0.58561769  0.09861460    -0.58300
C2028       C  0.83399146  0.55779219  0.21144659     0.75400
C2029       C  0.86441563  0.60581210  0.11780519     0.77800
Cd2030     Cd  0.82349728  0.57137341  0.13329087     1.37500
O2031       O  0.81028975  0.52761019  0.12005126    -0.57200
O2032       O  0.86822703  0.58219026  0.12210461    -0.56000
C2033       C  0.77251802  0.58782400  0.12832413     0.77800
O2034       O  0.84157140  0.61327324  0.11721996    -0.58400
O2035       O  0.82286891  0.54927512  0.07175466    -0.56800
O2036       O  0.81917897  0.57588533  0.20250959    -0.56800
O2037       O  0.78414506  0.58697716  0.15952331    -0.56000
O2038       O  0.70498768  0.52607703  0.12208486    -0.57200
C2039       C  0.68478329  0.56466958  0.21066754     0.75400
O2040       O  0.73262191  0.58390573  0.09722995    -0.58300
C2041       C  0.69620789  0.52415454  0.08905831     0.75400
C2042       C  0.65699475  0.61150978  0.11453430     0.77800
Cd2043     Cd  0.69329436  0.57182573  0.13118353     1.37500
O2044       O  0.67275930  0.55158745  0.18673733    -0.57200
O2045       O  0.65030164  0.58931370  0.12423310    -0.56000
C2046       C  0.74496476  0.58699983  0.12752458     0.77800
O2047       O  0.68036436  0.61484167  0.10840795    -0.58400
O2048       O  0.70030414  0.58075719  0.19784111    -0.56800
O2049       O  0.68461227  0.54358041  0.07627123    -0.56800
O2050       O  0.73276523  0.58573413  0.15809955    -0.56000
O2051       O  0.82790978  0.56176007  0.27842905    -0.57200
C2052       C  0.80978158  0.53399250  0.37840403     0.75400
O2053       O  0.86499350  0.50081291  0.36329233    -0.58300
C2054       C  0.84011751  0.55196714  0.25124819     0.75400
C2055       C  0.89127416  0.57878732  0.34410611     0.77800
Cd2056     Cd  0.85330276  0.54062678  0.32936562     1.37500
O2057       O  0.80863252  0.53122050  0.34303828    -0.57200
O2058       O  0.86785931  0.58398894  0.34267829    -0.56000
C2059       C  0.86426858  0.98795842  0.33344097     0.77800
O2060       O  0.89734428  0.55550066  0.34178493    -0.58400
O2061       O  0.83063779  0.54197482  0.39131656    -0.56800
O2062       O  0.85820392  0.53716266  0.26003961    -0.56800
O2063       O  0.86277577  0.50006568  0.30241797    -0.56000
O2064       O  0.79865917  0.92338199  0.33973411    -0.57200
C2065       C  0.83646297  0.90220153  0.25089570     0.75400
O2066       O  0.86007839  0.94725528  0.36388587    -0.58300
C2067       C  0.79723617  0.91565861  0.37353249     0.75400
C2068       C  0.88108127  0.87117364  0.34340095     0.77800
Cd2069     Cd  0.84334587  0.90966857  0.32976687     1.37500
O2070       O  0.82453108  0.88873050  0.27487088    -0.57200
O2071       O  0.85837587  0.86527582  0.33635082    -0.56000
C2072       C  0.86112894  0.96046725  0.33375825     0.77800
O2073       O  0.88567436  0.89453820  0.34806836    -0.58400
O2074       O  0.85104411  0.91906312  0.26346949    -0.56800
O2075       O  0.81612458  0.90318981  0.38595165    -0.56800
O2076       O  0.85623762  0.94941094  0.30320231    -0.56000
O2077       O  0.67758274  0.91904661  0.18756285    -0.57200
C2078       C  0.70580257  0.93472528  0.08637708     0.75400
O2079       O  0.73283203  0.87603904  0.10258934    -0.58300
C2080       C  0.68584679  0.90535960  0.21464623     0.75400
C2081       C  0.65376243  0.85853392  0.12244784     0.77800
Cd2082     Cd  0.69546439  0.89217539  0.13663068     1.37500
O2083       O  0.70866336  0.93607232  0.12175719    -0.57200
O2084       O  0.65026512  0.88228073  0.12515926    -0.56000
C2085       C  0.74635167  0.87538827  0.13202677     0.77800
O2086       O  0.67648822  0.85072942  0.12306277    -0.58400
O2087       O  0.69640120  0.91427657  0.07413911    -0.56800
O2088       O  0.69873193  0.88592270  0.20580491    -0.56800
O2089       O  0.73519149  0.87785781  0.16338082    -0.56000
O2090       O  0.81355269  0.93731690  0.12221610    -0.57200
C2091       C  0.83349444  0.89863033  0.21042871     0.75400
O2092       O  0.78583988  0.87894318  0.09942946    -0.58300
C2093       C  0.82245608  0.93954528  0.08923510     0.75400
C2094       C  0.86257412  0.85279297  0.11540093     0.77800
Cd2095     Cd  0.82550795  0.89157671  0.13164580     1.37500
O2096       O  0.84471156  0.91263006  0.18635914    -0.57200
O2097       O  0.86899463  0.87511044  0.12425791    -0.56000
C2098       C  0.77388495  0.87618864  0.13027381     0.77800
O2099       O  0.83920097  0.84901185  0.11011564    -0.58400
O2100       O  0.81936476  0.88136568  0.19795593    -0.56800
O2101       O  0.83392373  0.92018398  0.07651160    -0.56800
O2102       O  0.78645445  0.87785426  0.16037844    -0.56000
O2103       O  0.71976064  0.54245417  0.33895781    -0.57200
C2104       C  0.68119258  0.56140174  0.25135808     0.75400
O2105       O  0.66042288  0.51550581  0.36699469    -0.58300
C2106       C  0.72128340  0.54901916  0.37309869     0.75400
C2107       C  0.63707582  0.59358006  0.34475256     0.77800
Cd2108     Cd  0.67405305  0.55420651  0.33097604     1.37500
O2109       O  0.69401603  0.57387956  0.27507890    -0.57200
O2110       O  0.65989340  0.59869245  0.33704367    -0.56000
C2111       C  0.65718108  0.00275048  0.33693898     0.77800
O2112       O  0.63178815  0.57037443  0.35016446    -0.58400
O2113       O  0.66520982  0.54583957  0.26442577    -0.56800
O2114       O  0.70183677  0.55982205  0.38673560    -0.56800
O2115       O  0.65948365  0.51452097  0.30612594    -0.56000
O2116       O  0.68996919  0.89889083  0.28164019    -0.57200
C2117       C  0.71004482  0.92976128  0.38058609     0.75400
O2118       O  0.65669663  0.96186297  0.36690666    -0.58300
C2119       C  0.68029777  0.91139772  0.25436138     0.75400
C2120       C  0.62780239  0.88485835  0.34630963     0.77800
Cd2121     Cd  0.66676852  0.92241478  0.33205882     1.37500
O2122       O  0.71145453  0.93146263  0.34499976    -0.57200
O2123       O  0.65106252  0.87889385  0.34647448    -0.56000
C2124       C  0.65488487  0.97508481  0.33699588     0.77800
O2125       O  0.62261053  0.90830466  0.34272089    -0.58400
O2126       O  0.68918075  0.92198542  0.39401515    -0.56800
O2127       O  0.66514205  0.92915388  0.26294236    -0.56800
O2128       O  0.65436141  0.96326563  0.30607277    -0.56000
O2129       O  0.97033100  0.79101607  0.83946037    -0.57200
C2130       C  0.93516898  0.81216695  0.74892361     0.75400
O2131       O  0.91299857  0.76635464  0.86456645    -0.58300
C2132       C  0.97195657  0.79996699  0.87233995     0.75400
C2133       C  0.88617223  0.84056097  0.84290876     0.77800
Cd2134     Cd  0.92588381  0.80446860  0.82795153     1.37500
O2135       O  0.94626275  0.82567924  0.77329034    -0.57200
O2136       O  0.90848841  0.84780152  0.83559181    -0.56000
C2137       C  0.90846708  0.75346822  0.83529699     0.77800
O2138       O  0.88280062  0.81690438  0.84681472    -0.58400
O2139       O  0.92013263  0.79541067  0.76111297    -0.56800
O2140       O  0.95315717  0.81294295  0.88360642    -0.56800
O2141       O  0.91003651  0.76482590  0.80382587    -0.56000
O2142       O  0.96122579  0.68094993  0.84498546    -0.57200
C2143       C  0.92735722  0.66304347  0.75686203     0.75400
O2144       O  0.87325885  0.65599798  0.85041789    -0.58300
C2145       C  0.96001959  0.68098202  0.88065890     0.75400
C2146       C  0.90510186  0.72597968  0.83665140     0.77800
Cd2147     Cd  0.91592117  0.67323302  0.83465254     1.37500
O2148       O  0.94061494  0.65340112  0.78330736    -0.57200
O2149       O  0.90396563  0.71351098  0.80637222    -0.56000
C2150       C  0.88032240  0.63290673  0.85032831     0.77800
O2151       O  0.90649053  0.71342645  0.86724167    -0.58400
O2152       O  0.90913456  0.67736089  0.76638660    -0.56800
O2153       O  0.93890624  0.67503906  0.89525442    -0.56800
O2154       O  0.90385095  0.62879786  0.84721169    -0.56000
O2155       O  0.58043468  0.81198318  0.78389301    -0.57200
C2156       C  0.56001682  0.78537352  0.88216434     0.75400
O2157       O  0.61280719  0.75174218  0.86941429    -0.58300
C2158       C  0.59381878  0.80167719  0.75840715     0.75400
C2159       C  0.63932257  0.83313862  0.85273528     0.77800
Cd2160     Cd  0.60451990  0.79266357  0.83689708     1.37500
O2161       O  0.55910482  0.78561034  0.84647132    -0.57200
O2162       O  0.61600667  0.83726453  0.84719288    -0.56000
C2163       C  0.61610428  0.74007957  0.83869567     0.77800
O2164       O  0.64631120  0.81007828  0.85506887    -0.58400
O2165       O  0.58115834  0.79056481  0.89705411    -0.56800
O2166       O  0.61183088  0.78742110  0.76923629    -0.56800
O2167       O  0.61889206  0.75340829  0.80913514    -0.56000
O2168       O  0.55063199  0.67911938  0.83925565    -0.57200
C2169       C  0.58333914  0.65446177  0.74733419     0.75400
O2170       O  0.60828825  0.69871963  0.86448589    -0.58300
C2171       C  0.54794372  0.66822417  0.87095299     0.75400
C2172       C  0.63344434  0.62546267  0.83973731     0.77800
Cd2173     Cd  0.59390126  0.66253361  0.82601561     1.37500
O2174       O  0.57194783  0.64196805  0.77293245    -0.57200
O2175       O  0.61066966  0.61864053  0.83538174    -0.56000
C2176       C  0.61261428  0.71269420  0.83587439     0.77800
O2177       O  0.63743248  0.64910332  0.84128083    -0.58400
O2178       O  0.59901005  0.67095466  0.75803260    -0.56800
O2179       O  0.56558304  0.65309027  0.88083800    -0.56800
O2180       O  0.61048064  0.70264253  0.80377667    -0.56000
O2181       O  0.58978568  0.66255032  0.68134842    -0.57200
C2182       C  0.55922639  0.68436163  0.58353621     0.75400
O2183       O  0.58572300  0.59541265  0.61434534    -0.58300
C2184       C  0.57891069  0.64974334  0.70722810     0.75400
C2185       C  0.51885496  0.62357963  0.63030243     0.77800
Cd2186     Cd  0.56985333  0.63873866  0.62922671     1.37500
O2187       O  0.55972458  0.68491352  0.61921568    -0.57200
O2188       O  0.53204057  0.62401253  0.65998321    -0.56000
C2189       C  0.60900530  0.60097992  0.61426020     0.77800
O2190       O  0.53025847  0.62598312  0.59901591    -0.58400
O2191       O  0.56526935  0.66328675  0.56877885    -0.56800
O2192       O  0.56414648  0.63228061  0.69694253    -0.56800
O2193       O  0.61427309  0.62438758  0.61684850    -0.56000
O2194       O  0.96087952  0.68878402  0.62509777    -0.57200
C2195       C  0.93262253  0.65771814  0.71702579     0.75400
O2196       O  0.92579604  0.60409642  0.62128506    -0.58300
C2197       C  0.95489221  0.68841517  0.59057060     0.75400
C2198       C  0.99149910  0.62513096  0.63289164     0.77800
Cd2199     Cd  0.94252688  0.64572471  0.63917803     1.37500
O2200       O  0.92060880  0.66878334  0.69048306    -0.57200
O2201       O  0.98100378  0.62800881  0.66468371    -0.56000
C2202       C  0.90270671  0.61059266  0.62202579     0.77800
O2203       O  0.97789242  0.62782253  0.60374879    -0.58400
O2204       O  0.94928374  0.64160580  0.70759284    -0.56800
O2205       O  0.94144531  0.66988325  0.58016471    -0.56800
O2206       O  0.89790354  0.63381996  0.62805674    -0.56000
O2207       O  0.95285132  0.77696546  0.62049358    -0.57200
C2208       C  0.93934474  0.81567909  0.70845715     0.75400
O2209       O  0.98893900  0.83063379  0.59640964    -0.58300
C2210       C  0.94822908  0.77684710  0.58546376     0.75400
C2211       C  0.91061330  0.86281009  0.61538906     0.77800
Cd2212     Cd  0.94779920  0.82337169  0.62938217     1.37500
O2213       O  0.92926423  0.80120941  0.68429494    -0.57200
O2214       O  0.90457153  0.83996916  0.62212681    -0.56000
C2215       C  0.00106432  0.83277125  0.62707133     0.77800
O2216       O  0.93400102  0.86726573  0.61092180    -0.58400
O2217       O  0.95317188  0.83343390  0.69605280    -0.56800
O2218       O  0.94131721  0.79789353  0.57088904    -0.56800
O2219       O  0.98821424  0.83371156  0.65704503    -0.56000
O2220       O  0.60020893  0.79333957  0.69294190    -0.57200
C2221       C  0.57730796  0.77037055  0.59545131     0.75400
O2222       O  0.54235594  0.82680333  0.60061470    -0.58300
C2223       C  0.58898489  0.80611406  0.71816127     0.75400
C2224       C  0.61840495  0.85318809  0.62285981     0.77800
Cd2225     Cd  0.58030626  0.81588619  0.63918390     1.37500
O2226       O  0.56875315  0.77120835  0.62875549    -0.57200
O2227       O  0.62399654  0.83033457  0.63066577    -0.56000
C2228       C  0.52863888  0.83100092  0.62924038     0.77800
O2229       O  0.59510752  0.85852851  0.61946535    -0.58400
O2230       O  0.58931336  0.78970738  0.58373680    -0.56800
O2231       O  0.57359849  0.82307498  0.70696814    -0.56800
O2232       O  0.53948398  0.83083117  0.66103098    -0.56000
C2233       C  0.50924321  0.78156692  0.95982453     0.87100
C2234       C  0.53607797  0.78376387  0.94285635    -0.53100
C2235       C  0.53740357  0.77960370  0.90502497     0.10000
C2236       C  0.51240961  0.77092060  0.88773556     0.21000
C2237       C  0.99305720  0.79963278  0.93547671    -0.53800
C2238       C  0.99347699  0.79332584  0.89746521     0.10100
C2239       C  0.49790528  0.75608924  0.94684210    -0.53400
C2240       C  0.50416849  0.74753419  0.91193660     0.10700
H2241       H  0.55234426  0.78985449  0.95913790     0.15200
H2242       H  0.51349449  0.76668097  0.85712314     0.01000
H2243       H  0.97978488  0.81320515  0.94744305     0.15500
H2244       H  0.48755463  0.74426505  0.96587892     0.15300
C2245       C  0.50964003  0.78104369  0.00480988     0.87100
C2246       C  0.98301519  0.78312123  0.02249208    -0.53100
C2247       C  0.98219880  0.77807288  0.06029646     0.10000
C2248       C  0.50742196  0.76870546  0.07661575     0.21000
C2249       C  0.52613561  0.79838600  0.02911463    -0.53800
C2250       C  0.52619945  0.79120237  0.06693258     0.10100
C2251       C  0.52103866  0.75508154  0.01682079    -0.53400
C2252       C  0.51539226  0.74577229  0.05168434     0.10700
H2253       H  0.96660111  0.78985944  0.00678359     0.15200
H2254       H  0.50676320  0.76374328  0.10714219     0.01000
H2255       H  0.53906245  0.81232065  0.01718147     0.15500
H2256       H  0.53908909  0.74921405  0.00518675     0.15300
C2257       C  0.51025942  0.68490974  0.95882212     0.87100
C2258       C  0.98353501  0.68253668  0.94163496    -0.53100
C2259       C  0.98228879  0.68733581  0.90382700     0.10000
C2260       C  0.50719454  0.69699334  0.88689939     0.21000
C2261       C  0.52689453  0.66766204  0.93427263    -0.53800
C2262       C  0.52653485  0.67473149  0.89637126     0.10100
C2263       C  0.52114824  0.71081922  0.94640030    -0.53400
C2264       C  0.51489812  0.72001244  0.91169591     0.10700
H2265       H  0.96736755  0.67566474  0.95765882     0.15200
H2266       H  0.50617947  0.70187086  0.85636439     0.01000
H2267       H  0.54024909  0.65396580  0.94607291     0.15500
H2268       H  0.53139875  0.72233359  0.96559275     0.15300
C2269       C  0.50978890  0.68454393  0.00379150     0.87100
C2270       C  0.53640238  0.68225124  0.02141261    -0.53100
C2271       C  0.53718944  0.68650683  0.05928351     0.10000
C2272       C  0.51184019  0.69528489  0.07582190     0.21000
C2273       C  0.99339045  0.66656575  0.02767266    -0.53800
C2274       C  0.99312565  0.67293549  0.06559895     0.10100
C2275       C  0.49820806  0.71018808  0.01634158    -0.53400
C2276       C  0.50377690  0.71874833  0.05141110     0.10700
H2277       H  0.55291994  0.67618385  0.00549680     0.15200
H2278       H  0.51243879  0.69952369  0.10645689     0.01000
H2279       H  0.98047373  0.65294028  0.01536321     0.15500
H2280       H  0.48018152  0.71625311  0.00472798     0.15300
C2281       C  0.56055906  0.73640393  0.50642781     0.87100
C2282       C  0.57919208  0.74969852  0.53259691    -0.53100
C2283       C  0.57098707  0.74927858  0.57016161     0.10000
C2284       C  0.54594655  0.73318740  0.57715064     0.21000
C2285       C  0.55932859  0.70906592  0.52331928    -0.53800
C2286       C  0.55303153  0.70739206  0.56039562     0.10100
C2287       C  0.53669986  0.75171822  0.51800961    -0.53400
C2288       C  0.52512751  0.74531566  0.55078458     0.10700
H2289       H  0.59433351  0.76178268  0.52212719     0.15200
H2290       H  0.54007986  0.73213343  0.60723637     0.01000
H2291       H  0.56617506  0.69266869  0.50781248     0.15500
H2292       H  0.52917777  0.76663545  0.49970208     0.15300
C2293       C  0.55919832  0.73525306  0.46133210     0.87100
C2294       C  0.57527462  0.71757173  0.43643651    -0.53100
C2295       C  0.56684670  0.71663178  0.39929119     0.10000
C2296       C  0.54370645  0.73454520  0.39037109     0.21000
C2297       C  0.56008462  0.76112263  0.44129939    -0.53800
C2298       C  0.55317014  0.76091549  0.40415959     0.10100
C2299       C  0.53291371  0.72440185  0.45357738    -0.53400
C2300       C  0.52267947  0.72551513  0.41842088     0.10700
H2301       H  0.58986026  0.70501316  0.44775447     0.15200
H2302       H  0.53752054  0.73448936  0.36041826     0.01000
H2303       H  0.56768482  0.77786357  0.45495272     0.15500
H2304       H  0.52379378  0.71486554  0.47673355     0.15300
C2305       C  0.95964489  0.73088600  0.50305237     0.87100
C2306       C  0.95632161  0.70654879  0.52612964    -0.53100
C2307       C  0.96266054  0.70844577  0.56338002     0.10000
C2308       C  0.97435750  0.73439350  0.57429579     0.21000
C2309       C  0.94494563  0.75146195  0.52532904    -0.53800
C2310       C  0.95314585  0.75389583  0.56247755     0.10100
C2311       C  0.98665293  0.73995899  0.51055979    -0.53400
C2312       C  0.99640559  0.73962261  0.54612837     0.10700
H2313       H  0.94768986  0.68968695  0.51427634     0.15200
H2314       H  0.98020966  0.73557183  0.60433069     0.01000
H2315       H  0.93155530  0.76456963  0.51224207     0.15500
H2316       H  0.99629651  0.74845046  0.48695872     0.15300
C2317       C  0.95843713  0.72702081  0.45800708     0.87100
C2318       C  0.95845099  0.75327428  0.43809103    -0.53100
C2319       C  0.96434299  0.75319420  0.40083236     0.10000
C2320       C  0.97287544  0.72711459  0.38693193     0.21000
C2321       C  0.94062251  0.71108549  0.43338053    -0.53800
C2322       C  0.94890696  0.70976812  0.39581251     0.10100
C2323       C  0.98292022  0.71233027  0.44782912    -0.53400
C2324       C  0.99432860  0.71782656  0.41445329     0.10700
H2325       H  0.95097686  0.77016677  0.45165103     0.15200
H2326       H  0.97871133  0.72698049  0.35680753     0.01000
H2327       H  0.92634723  0.69855079  0.44531107     0.15500
H2328       H  0.99011545  0.69760659  0.46678988     0.15300
O2329       O  0.55768280  0.78215226  0.34370598    -0.57200
C2330       C  0.57832137  0.81695704  0.25519857     0.75400
O2331       O  0.52972159  0.84222708  0.36385301    -0.58300
C2332       C  0.55892142  0.78315459  0.37930926     0.75400
C2333       C  0.60780066  0.86544834  0.34680311     0.77800
Cd2334     Cd  0.56873924  0.82822101  0.33264001     1.37500
O2335       O  0.58817545  0.80336358  0.28120293    -0.57200
O2336       O  0.61289153  0.84188810  0.34562870    -0.56000
C2337       C  0.51769626  0.84291884  0.33293529     0.77800
O2338       O  0.58460537  0.87154648  0.34539330    -0.58400
O2339       O  0.56440027  0.83531987  0.26521028    -0.56800
O2340       O  0.56619100  0.80416924  0.39279773    -0.56800
O2341       O  0.53032209  0.84158469  0.30275924    -0.56000
O2342       O  0.92050140  0.79491834  0.27584126    -0.57200
C2343       C  0.95656537  0.77444612  0.37545943     0.75400
O2344       O  0.97748442  0.83720844  0.36131065    -0.58300
C2345       C  0.93318955  0.80524699  0.24941977     0.75400
C2346       C  0.90156072  0.85228710  0.34250551     0.77800
Cd2347     Cd  0.94254010  0.81749880  0.32739454     1.37500
O2348       O  0.95929453  0.77353055  0.34004136    -0.57200
O2349       O  0.89737519  0.82883382  0.33776686    -0.56000
C2350       C  0.99046976  0.84009204  0.33156949     0.77800
O2351       O  0.92447709  0.85908268  0.34330106    -0.58400
O2352       O  0.94585988  0.79423970  0.38804078    -0.56800
O2353       O  0.95044180  0.82048198  0.25907100    -0.56800
O2354       O  0.97973626  0.83610294  0.30030625    -0.56000
O2355       O  0.94112742  0.81003966  0.18314016    -0.57200
C2356       C  0.96004951  0.78380387  0.08415464     0.75400
O2357       O  0.90644949  0.75207841  0.09653023    -0.58300
C2358       C  0.92793769  0.80023962  0.20944824     0.75400
C2359       C  0.88103902  0.83187090  0.11535288     0.77800
Cd2360     Cd  0.91632693  0.79124074  0.13112450     1.37500
O2361       O  0.96145312  0.78281809  0.11980603    -0.57200
O2362       O  0.90448264  0.83596040  0.11912877    -0.56000
C2363       C  0.90413027  0.73903361  0.12649893     0.77800
O2364       O  0.87412429  0.80883430  0.11516951    -0.58400
O2365       O  0.93886260  0.79026269  0.07021947    -0.56800
O2366       O  0.90972315  0.78620430  0.19962492    -0.56800
O2367       O  0.90290095  0.75094640  0.15727801    -0.56000
O2368       O  0.96881994  0.67478879  0.12283723    -0.57200
C2369       C  0.93314949  0.65157405  0.21159460     0.75400
O2370       O  0.91121515  0.69893706  0.09705558    -0.58300
C2371       C  0.97121186  0.66608963  0.08990048     0.75400
C2372       C  0.88540648  0.62391861  0.11750711     0.77800
Cd2373     Cd  0.92439875  0.66041966  0.13278223     1.37500
O2374       O  0.94484956  0.63873668  0.18689236    -0.57200
O2375       O  0.90784838  0.61694722  0.12496502    -0.56000
C2376       C  0.90684390  0.71146575  0.12679038     0.77800
O2377       O  0.88160349  0.64752712  0.11317153    -0.58400
O2378       O  0.91767512  0.66822524  0.19983807    -0.56800
O2379       O  0.95284896  0.65299497  0.07782687    -0.56800
O2380       O  0.90821502  0.69962045  0.15789213    -0.56000
O2381       O  0.54979921  0.78823811  0.12467726    -0.57200
C2382       C  0.58288359  0.81211256  0.21521335     0.75400
O2383       O  0.60719029  0.76689170  0.09922555    -0.58300
C2384       C  0.54751411  0.79802568  0.09212585     0.75400
C2385       C  0.63264199  0.84055695  0.12227565     0.77800
Cd2386     Cd  0.59341194  0.80385505  0.13670590     1.37500
O2387       O  0.57253720  0.82557083  0.18960306    -0.57200
O2388       O  0.60986697  0.84765549  0.12652781    -0.56000
C2389       C  0.61242311  0.75358085  0.12822761     0.77800
O2390       O  0.63665976  0.81687562  0.12106311    -0.58400
O2391       O  0.59755733  0.79453225  0.20461958    -0.56800
O2392       O  0.56548407  0.81226397  0.08125780    -0.56800
O2393       O  0.61119841  0.76439423  0.15988149    -0.56000
O2394       O  0.57955123  0.65546859  0.18278368    -0.57200
C2395       C  0.55962261  0.68097042  0.08283844     0.75400
O2396       O  0.61355689  0.71401173  0.09603996    -0.58300
C2397       C  0.59296867  0.66563016  0.20822960     0.75400
C2398       C  0.63877685  0.63269148  0.11441110     0.77800
Cd2399     Cd  0.60387229  0.67380609  0.12937385     1.37500
O2400       O  0.55867357  0.68251147  0.11841927    -0.57200
O2401       O  0.61568506  0.62893847  0.12196460    -0.56000
C2402       C  0.61579325  0.72611630  0.12655812     0.77800
O2403       O  0.64559863  0.65564004  0.11027456    -0.58400
O2404       O  0.58062776  0.67417721  0.06875038    -0.56800
O2405       O  0.61118854  0.67940352  0.19724116    -0.56800
O2406       O  0.61738942  0.71324077  0.15675222    -0.56000
O2407       O  0.95053236  0.68604872  0.33847528    -0.57200
C2408       C  0.93730768  0.64754715  0.25195102     0.75400
O2409       O  0.98688188  0.63280329  0.36610359    -0.58300
C2410       C  0.94467387  0.68664173  0.37306375     0.75400
C2411       C  0.91027815  0.59913701  0.34477563     0.77800
Cd2412     Cd  0.94626398  0.63950220  0.33083715     1.37500
O2413       O  0.92592036  0.66076312  0.27652916    -0.57200
O2414       O  0.90369675  0.62218049  0.34109454    -0.56000
C2415       C  0.99989209  0.63169922  0.33604510     0.77800
O2416       O  0.93387048  0.59464292  0.34599972    -0.58400
O2417       O  0.95256388  0.63071314  0.26384399    -0.56800
O2418       O  0.93753356  0.66576685  0.38778064    -0.56800
O2419       O  0.98785321  0.63097595  0.30533672    -0.56000
O2420       O  0.56640439  0.69544872  0.33983654    -0.57200
C2421       C  0.58793859  0.66140677  0.24857992     0.75400
O2422       O  0.59412976  0.60801269  0.34625387    -0.58300
C2423       C  0.57379660  0.69567376  0.37378408     0.75400
C2424       C  0.52745902  0.63433156  0.33537471     0.77800
Cd2425     Cd  0.57886769  0.65092527  0.32775281     1.37500
O2426       O  0.59986930  0.67319308  0.27402983    -0.57200
O2427       O  0.53912686  0.63457141  0.30421672    -0.56000
C2428       C  0.61741445  0.61335982  0.34366935     0.77800
O2429       O  0.54026768  0.63923347  0.36459012    -0.58400
O2430       O  0.57161713  0.64548383  0.25962373    -0.56800
O2431       O  0.58561679  0.67610601  0.38546022    -0.56800
O2432       O  0.62284122  0.63634384  0.33682355    -0.56000
loop_ 
_geom_bond_atom_site_label_1 
_geom_bond_atom_site_label_2 
_geom_bond_distance 
_geom_bond_site_symmetry_2 
_ccdc_geom_bond_type 
O1            C4   1.264       .  A
O1           Cd6   2.491       .  S
C2           O11   1.261       .  A
C2            O7   1.267       .  A
C2           C54   1.459       .  S
O3            C9   1.268       .  A
O3           Cd6   2.466       .  S
C4           O12   1.267       .  A
C4          C110   1.483       .  S
C5           O10   1.263       .  A
C5            O8   1.264       .  A
C5          C335   1.464       .  S
Cd6          O13   2.411       .  S
Cd6          O12   2.482       .  S
Cd6          O11   2.442       .  S
Cd6           O7   2.461       .  S
Cd6          O10   2.476       .  S
Cd6           O8   2.458       .  S
C9           O13   1.261       .  A
C9           C22   1.453       .  S
O14          C17   1.268       .  A
O14         Cd19   2.485       .  S
C15          O24   1.266       .  A
C15          O20   1.266       .  A
C15         C131   1.479       .  S
O16          C22   1.263       .  A
O16         Cd19   2.446       .  S
C17          O25   1.265       .  A
C17          C43   1.473       .  S
C18          O23   1.265       .  A
C18          O21   1.264       .  A
C18         C309   1.462       .  S
Cd19         O26   2.422       .  S
Cd19         O25   2.480       .  S
Cd19         O24   2.476       .  S
Cd19         O20   2.465       .  S
Cd19         O23   2.460       .  S
Cd19         O21   2.460       .  S
C22          O26   1.265       .  A
O27          C30   1.269       .  A
O27         Cd32   2.457       .  S
C28          O37   1.267       .  A
C28          O33   1.263       .  A
C28         C182   1.481       .  S
O29          C35   1.264       .  A
O29         Cd32   2.453       .  S
C30          O38   1.261       .  A
C30          C93   1.459       .  S
C31         O644   1.267       .  A
C31         O642   1.261       .  A
C31          C48   1.454       .  S
Cd32         O39   2.460       .  S
Cd32         O38   2.435       .  S
Cd32         O37   2.478       .  S
Cd32         O33   2.486       .  S
Cd32         O36   2.479       .  S
Cd32         O34   2.400       .  S
O34         C639   1.261       .  A
C35          O39   1.264       .  A
C35         C378   1.461       .  S
O36         C639   1.267       .  A
O40          C43   1.269       .  A
O40         Cd45   2.490       .  S
C41          O50   1.266       .  A
C41          O46   1.264       .  A
C41         C155   1.480       .  S
O42          C48   1.264       .  A
O42         Cd45   2.459       .  S
C43          O51   1.265       .  A
C44          O49   1.265       .  A
C44          O47   1.264       .  A
C44         C387   1.469       .  S
Cd45         O52   2.412       .  S
Cd45         O51   2.470       .  S
Cd45         O50   2.492       .  S
Cd45         O46   2.461       .  S
Cd45         O49   2.499       .  S
Cd45         O47   2.460       .  S
C48          O52   1.264       .  A
O53          C56   1.264       .  A
O53         Cd58   2.491       .  S
C54          O63   1.261       .  A
C54          O59   1.267       .  A
O55          C61   1.267       .  A
O55         Cd58   2.474       .  S
C56          O64   1.267       .  A
C56         C158   1.482       .  S
C57          O62   1.263       .  A
C57          O60   1.263       .  A
C57         C400   1.461       .  S
Cd58         O65   2.408       .  S
Cd58         O64   2.473       .  S
Cd58         O63   2.441       .  S
Cd58         O59   2.466       .  S
Cd58         O62   2.471       .  S
Cd58         O60   2.456       .  S
C61          O65   1.262       .  A
C61          C74   1.455       .  S
O66          C69   1.268       .  A
O66         Cd71   2.487       .  S
C67          O76   1.267       .  A
C67          O72   1.265       .  A
C67         C179   1.479       .  S
O68         C682   1.264   1_545  A
O68         Cd71   2.467       .  S
C69          O77   1.265       .  A
C69          C82   1.473       .  S
C70          O75   1.265       .  A
C70          O73   1.264       .  A
C70         C365   1.474       .  S
Cd71         O78   2.415       .  S
Cd71         O77   2.478       .  S
Cd71         O76   2.485       .  S
Cd71         O72   2.462       .  S
Cd71         O75   2.485       .  S
Cd71         O73   2.490       .  S
C74         O676   1.264       .  A
C74         O686   1.264       .  A
O78         C682   1.264   1_545  A
O79          C82   1.269       .  A
O79         Cd84   2.490       .  S
C80          O89   1.266       .  A
C80          O85   1.266       .  A
C80         C107   1.477       .  S
O81          C87   1.262       .  A
O81         Cd84   2.453       .  S
C82          O90   1.265       .  A
C83          O88   1.265       .  A
C83          O86   1.264       .  A
C83         C348   1.466       .  S
Cd84         O91   2.432       .  S
Cd84         O90   2.468       .  S
Cd84         O89   2.477       .  S
Cd84         O85   2.456       .  S
Cd84         O88   2.461       .  S
Cd84         O86   2.478       .  S
C87          O91   1.265       .  A
C87         C100   1.455       .  S
O92          C95   1.263       .  A
O92         Cd97   2.491       .  S
C93         O102   1.260       .  A
C93          O98   1.268       .  A
O94         C100   1.268       .  A
O94         Cd97   2.468       .  S
C95         O103   1.267       .  A
C95         C134   1.484       .  S
C96         O101   1.264       .  A
C96          O99   1.264       .  A
C96         C326   1.468       .  S
Cd97        O104   2.416       .  S
Cd97        O103   2.494       .  S
Cd97        O102   2.433       .  S
Cd97         O98   2.471       .  S
Cd97        O101   2.485       .  S
Cd97         O99   2.466       .  S
C100        O104   1.261       .  A
C105        C111   1.543       .  S
C105        C109   1.535       .  S
C105        C714   1.544       .  S
C105        C117   1.607   1_556  S
C106        C713   1.543   1_545  S
C106        H113   1.085       .  S
C106        C107   1.365       .  D
C107        C716   1.529   1_545  S
C108        C112   1.554       .  S
C108        C110   1.581       .  S
C108        C715   1.529       .  S
C108        H114   1.110       .  S
C109        H115   1.085       .  S
C109        C110   1.391       .  D
C111        H116   1.060       .  S
C111        C112   1.356       .  D
C112        C136   1.551       .  S
C117        C118   1.546       .  S
C117        C123   1.543       .  S
C117        C729   1.536       .  S
C118        H125   1.085       .  S
C118        C119   1.366       .  D
C119        C254   1.479       .  S
C119        C120   1.529       .  S
C120        C124   1.554       .  S
C120        C730   1.583       .  S
C120        H126   1.110       .  S
C121        C725   1.536   1_545  S
C121        H127   1.085       .  S
C121        C122   1.392       .  D
C122        C217   1.487       .  S
C122        C728   1.583   1_545  S
C123        H128   1.061   1_554  S
C123        C124   1.356       .  D
C124        C148   1.549       .  S
C129        C130   1.544       .  S
C129        C135   1.540       .  S
C129        C741   1.534       .  S
C129        C141   1.599   1_556  S
C130        H137   1.085       .  S
C130        C131   1.366       .  D
C131        C132   1.529       .  S
C132        C136   1.556       .  S
C132        C742   1.583       .  S
C132        H138   1.110       .  S
C133        C737   1.535   1_545  S
C133        H139   1.085       .  S
C133        C134   1.389       .  D
C134        C740   1.582   1_545  S
C135        H140   1.081       .  S
C135        C136   1.356       .  D
C141        C147   1.541       .  S
C141        C145   1.534       .  S
C141        C750   1.543       .  S
C142        C749   1.544   1_545  S
C142        H149   1.085       .  S
C142        C143   1.364       .  D
C143        C202   1.476       .  S
C143        C752   1.529   1_545  S
C144        C148   1.554       .  S
C144        C146   1.582       .  S
C144        C751   1.529       .  S
C144        H150   1.110       .  S
C145        H151   1.085       .  S
C145        C146   1.390       .  D
C146        C269   1.485       .  S
C147        H152   1.081       .  S
C147        C148   1.358       .  D
C153        C154   1.545       .  S
C153        C159   1.543       .  S
C153        C157   1.529       .  S
C153        C165   1.594       .  S
C154        H161   1.085       .  S
C154        C155   1.364       .  D
C155        C156   1.531       .  S
C156        C160   1.559       .  S
C156        C158   1.583       .  S
C156        H162   1.110       .  S
C157        H163   1.085       .  S
C157        C158   1.387       .  D
C159        H164   1.081       .  S
C159        C160   1.357       .  D
C160        C792   1.550       .  S
C165        C166   1.548       .  S
C165        C171   1.540       .  S
C165        C169   1.529       .  S
C166        H173   1.085       .  S
C166        C167   1.366       .  D
C167        C293   1.479       .  S
C167        C168   1.528       .  S
C168        C172   1.558       .  S
C168        C170   1.582       .  S
C168        H174   1.110       .  S
C169        H175   1.085       .  S
C169        C170   1.387       .  D
C170        C243   1.479       .  S
C171        H176   1.064       .  S
C171        C172   1.357       .  D
C172        C804   1.554       .  S
C177        C178   1.545       .  S
C177        C183   1.544       .  S
C177        C181   1.530       .  S
C177        C189   1.595       .  S
C178        H185   1.085       .  S
C178        C179   1.364       .  D
C179        C180   1.530       .  S
C180        C184   1.559   1_545  S
C180        C182   1.582       .  S
C180        H186   1.110       .  S
C181        H187   1.085       .  S
C181        C182   1.387       .  D
C183        H188   1.081   1_545  S
C183        C184   1.358   1_545  D
C184        C768   1.551       .  S
C189        C190   1.547       .  S
C189        C195   1.541       .  S
C189        C193   1.530       .  S
C190        H197   1.085       .  S
C190        C191   1.366       .  D
C191        C228   1.481       .  S
C191        C192   1.531       .  S
C192        C196   1.558   1_545  S
C192        C194   1.584       .  S
C192        H198   1.110       .  S
C193        H199   1.085       .  S
C193        C194   1.388       .  D
C194        C282   1.484       .  S
C195        H200   1.064   1_545  S
C195        C196   1.358   1_545  D
C196        C780   1.554       .  S
O201        C204   1.269       .  A
O201       Cd206   2.489       .  S
C202        O211   1.266       .  A
C202        O207   1.265       .  A
O203        C209   1.263       .  A
O203       Cd206   2.455       .  S
C204        O212   1.265       .  A
C204        C230   1.475       .  S
C205        O210   1.265       .  A
C205        O208   1.264       .  A
C205        C548   1.462       .  S
Cd206       O213   2.416       .  S
Cd206       O212   2.477       .  S
Cd206       O211   2.480       .  S
Cd206       O207   2.452       .  S
Cd206       O210   2.463       .  S
Cd206       O208   2.459       .  S
C209        O213   1.264       .  A
C209        C222   1.454       .  S
O214        C217   1.264       .  A
O214       Cd219   2.499       .  S
C215        O224   1.261       .  A
C215        O220   1.269       .  A
C215        C280   1.462       .  S
O216        C222   1.268       .  A
O216       Cd219   2.477       .  S
C217        O225   1.267       .  A
C218        O223   1.264       .  A
C218        O221   1.264       .  A
C218        C574   1.466       .  S
Cd219       O226   2.410       .  S
Cd219       O225   2.500       .  S
Cd219       O224   2.441       .  S
Cd219       O220   2.475       .  S
Cd219       O223   2.483       .  S
Cd219       O221   2.451       .  S
C222        O226   1.261       .  A
O227        C230   1.269       .  A
O227       Cd232   2.498       .  S
C228        O237   1.267       .  A
C228        O233   1.264       .  A
O229        C843   1.265   1_545  A
O229       Cd232   2.477       .  S
C230        O238   1.265       .  A
C231        O236   1.266       .  A
C231        O234   1.264       .  A
C231        C587   1.469       .  S
Cd232       O239   2.394       .  S
Cd232       O238   2.474       .  S
Cd232       O237   2.499       .  S
Cd232       O233   2.456       .  S
Cd232       O236   2.495       .  S
Cd232       O234   2.458       .  S
C235        O837   1.265       .  A
C235        O847   1.263       .  A
C235        C248   1.454       .  S
O239        C843   1.263   1_545  A
O240        C243   1.263       .  A
O240       Cd245   2.486       .  S
C241        O250   1.261       .  A
C241        O246   1.269       .  A
C241        C267   1.456       .  S
O242        C248   1.268       .  A
O242       Cd245   2.492       .  S
C243        O251   1.266       .  A
C244        O249   1.264       .  A
C244        O247   1.264       .  A
C244        C522   1.463       .  S
Cd245       O252   2.383       .  S
Cd245       O251   2.474       .  S
Cd245       O250   2.429       .  S
Cd245       O246   2.458       .  S
Cd245       O249   2.450       .  S
Cd245       O247   2.470       .  S
C248        O252   1.260       .  A
O253        C256   1.269       .  A
O253       Cd258   2.484       .  S
C254        O263   1.266       .  A
C254        O259   1.265       .  A
O255        C261   1.264       .  A
O255       Cd258   2.460       .  S
C256        O264   1.265       .  A
C256        C295   1.474       .  S
C257        O262   1.265       .  A
C257        O260   1.264       .  A
C257        C561   1.465       .  S
Cd258       O265   2.416       .  S
Cd258       O264   2.473       .  S
Cd258       O263   2.489       .  S
Cd258       O259   2.461       .  S
Cd258       O262   2.453       .  S
Cd258       O260   2.478       .  S
C261        O265   1.264       .  A
C261        C274   1.454       .  S
O266        C269   1.263       .  A
O266       Cd271   2.498       .  S
C267        O276   1.260       .  A
C267        O272   1.269       .  A
O268        C274   1.269       .  A
O268       Cd271   2.480       .  S
C269        O277   1.267       .  A
C270        O275   1.264       .  A
C270        O273   1.264       .  A
C270        C535   1.464       .  S
Cd271       O278   2.405       .  S
Cd271       O277   2.496       .  S
Cd271       O276   2.425       .  S
Cd271       O272   2.462       .  S
Cd271       O275   2.474       .  S
Cd271       O273   2.459       .  S
C274        O278   1.260       .  A
O279        C282   1.263       .  A
O279       Cd284   2.500       .  S
C280        O289   1.262       .  A
C280        O285   1.268       .  A
O281        C895   1.268       .  A
O281       Cd284   2.498       .  S
C282        O290   1.267       .  A
C283        O288   1.264       .  A
C283        O286   1.263       .  A
C283        C604   1.465       .  S
Cd284       O291   2.402       .  S
Cd284       O290   2.483       .  S
Cd284       O289   2.447       .  S
Cd284       O285   2.465       .  S
Cd284       O288   2.477       .  S
Cd284       O286   2.463       .  S
C287        O889   1.268       .  A
C287        O899   1.260       .  A
C287        C300   1.458       .  S
O291        C895   1.261       .  A
O292        C295   1.269       .  A
O292       Cd297   2.496       .  S
C293        O302   1.266       .  A
C293        O298   1.265       .  A
O294        C300   1.264       .  A
O294       Cd297   2.477       .  S
C295        O303   1.264       .  A
C296        O301   1.265       .  A
C296        O299   1.265       .  A
C296        C509   1.471       .  S
Cd297       O304   2.413       .  S
Cd297       O303   2.473       .  S
Cd297       O302   2.493       .  S
Cd297       O298   2.453       .  S
Cd297       O301   2.474       .  S
Cd297       O299   2.486       .  S
C300        O304   1.264       .  A
O305        C308   1.263       .  A
O305       Cd310   2.477       .  S
C306        O315   1.260       .  A
C306        O311   1.268       .  A
C306        C384   1.459       .  S
O307        C313   1.267       .  A
O307       Cd310   2.471       .  S
C308        O316   1.267       .  A
C308        C414   1.480       .  S
C309        O314   1.262       .  A
C309        O312   1.265       .  A
Cd310       O317   2.409       .  S
Cd310       O316   2.482       .  S
Cd310       O315   2.436       .  S
Cd310       O311   2.471       .  S
Cd310       O314   2.452       .  S
Cd310       O312   2.467       .  S
C313        O317   1.262       .  A
C313        C322   1.455       .  S
O318        C321   1.265       .  A
O318       Cd323   2.454       .  S
C319        O328   1.265       .  A
C319        O324   1.269       .  A
C319        C371   1.467       .  S
O320        C326   1.267       .  A
O320       Cd323   2.488       .  S
C321        O329   1.267       .  A
C321        C435   1.475       .  S
C322        O327   1.265       .  A
C322        O325   1.264       .  A
Cd323       O330   2.457       .  S
Cd323       O329   2.469       .  S
Cd323       O328   2.454       .  S
Cd323       O324   2.468       .  S
Cd323       O327   2.461       .  S
Cd323       O325   2.411       .  S
C326        O330   1.263       .  A
O331        C334   1.269       .  A
O331       Cd336   2.472       .  S
C332        O341   1.266       .  A
C332        O337   1.265       .  A
C332        C411   1.472       .  S
O333        C339   1.265       .  A
O333       Cd336   2.466       .  S
C334        O342   1.264       .  A
C334        C399   1.464       .  S
C335        O340   1.266       .  A
C335        O338   1.263       .  A
Cd336       O343   2.412       .  S
Cd336       O342   2.444       .  S
Cd336       O341   2.459       .  S
Cd336       O337   2.447       .  S
Cd336       O340   2.479       .  S
Cd336       O338   2.452       .  S
C339        O343   1.263       .  A
C339        C352   1.455       .  S
O344        C347   1.263       .  A
O344       Cd349   2.485       .  S
C345        O354   1.262       .  A
C345        O350   1.267       .  A
C345        C360   1.463       .  S
O346        C352   1.267       .  A
O346       Cd349   2.473       .  S
C347        O355   1.268       .  A
C347        C438   1.484       .  S
C348        O353   1.262       .  A
C348        O351   1.265       .  A
Cd349       O356   2.409       .  S
Cd349       O355   2.497       .  S
Cd349       O354   2.460       .  S
Cd349       O350   2.466       .  S
Cd349       O353   2.457       .  S
Cd349       O351   2.486       .  S
C352        O356   1.263       .  A
O357        C360   1.270       .  A
O357       Cd362   2.479       .  S
C358        O367   1.268       .  A
C358        O363   1.265       .  A
C358        C462   1.489       .  S
O359        C365   1.264       .  A
O359       Cd362   2.479       .  S
C360        O368   1.263       .  A
C361        O366   1.266       .  A
C361        O364   1.262       .  A
C361       C1590   1.448   1_455  S
Cd362       O369   2.497       .  S
Cd362       O368   2.435       .  S
Cd362       O367   2.496       .  S
Cd362       O363   2.501       .  S
Cd362       O366   2.444       .  S
Cd362       O364   2.402       .  S
C365        O369   1.266       .  A
O370        C373   1.264       .  A
O370       Cd375   2.509       .  S
C371        O380   1.264       .  A
C371        O376   1.269       .  A
O372        C378   1.263       .  A
O372       Cd375   2.450       .  S
C373        O381   1.265       .  A
C373        C483   1.479       .  S
C374        O379   1.264       .  A
C374        O377   1.264       .  A
C374       C1577   1.448       .  S
Cd375       O382   2.470       .  S
Cd375       O381   2.434       .  S
Cd375       O380   2.454       .  S
Cd375       O376   2.477       .  S
Cd375       O379   2.435       .  S
Cd375       O377   2.404       .  S
C378        O382   1.265       .  A
O383        C386   1.265       .  A
O383       Cd388   2.473       .  S
C384        O393   1.262       .  A
C384        O389   1.269       .  A
O385        C391   1.267       .  A
O385       Cd388   2.490       .  S
C386        O394   1.267       .  A
C386        C486   1.482       .  S
C387        O392   1.266       .  A
C387        O390   1.263       .  A
Cd388       O395   2.418       .  S
Cd388       O394   2.500       .  S
Cd388       O393   2.440       .  S
Cd388       O389   2.458       .  S
Cd388       O392   2.494       .  S
Cd388       O390   2.450       .  S
C391        O395   1.260       .  A
C391       C1620   1.459       .  S
O396        C399   1.267       .  A
O396       Cd401   2.463       .  S
C397        O406   1.266       .  A
C397        O402   1.264       .  A
C397        C459   1.471       .  S
O398        C404   1.265       .  A
O398       Cd401   2.482       .  S
C399        O407   1.263       .  A
C400        O405   1.265       .  A
C400        O403   1.262       .  A
Cd401       O408   2.422       .  S
Cd401       O407   2.459       .  S
Cd401       O406   2.450       .  S
Cd401       O402   2.460       .  S
Cd401       O405   2.470       .  S
Cd401       O403   2.447       .  S
C404        O408   1.264       .  A
C404       C1607   1.459       .  S
C409        C410   1.541       .  S
C409        C415   1.543   1_455  S
C409       C1629   1.533   1_455  S
C409        C421   1.594   1_556  S
C410        H417   1.085       .  S
C410        C411   1.361       .  D
C411        C412   1.527       .  S
C412        C416   1.555       .  S
C412       C1630   1.579   1_455  S
C412        H418   1.110       .  S
C413       C1625   1.533       .  S
C413        H419   1.085       .  S
C413        C414   1.390       .  D
C414       C1628   1.579       .  S
C415        H420   1.064       .  S
C415        C416   1.359   1_655  D
C416        C440   1.550       .  S
C421        C427   1.543       .  S
C421        C425   1.534       .  S
C421       C1638   1.541   1_455  S
C422       C1637   1.541       .  S
C422        H429   1.085       .  S
C422        C423   1.363       .  D
C423        C532   1.473       .  S
C423       C1640   1.529       .  S
C424        C428   1.556       .  S
C424        C426   1.581       .  S
C424       C1639   1.528   1_455  S
C424        H430   1.110       .  S
C425        H431   1.085       .  S
C425        C426   1.388       .  D
C426        C560   1.485       .  S
C427        H432   1.081       .  S
C427        C428   1.357       .  D
C428        C452   1.549       .  S
C433        C439   1.540       .  S
C433        C437   1.534       .  S
C433       C1650   1.542   1_455  S
C433        C445   1.593   1_556  S
C434       C1649   1.542       .  S
C434        H441   1.085       .  S
C434        C435   1.362       .  D
C435       C1652   1.531       .  S
C436        C440   1.557       .  S
C436        C438   1.582       .  S
C436       C1651   1.531   1_455  S
C436        H442   1.110       .  S
C437        H443   1.085       .  S
C437        C438   1.389       .  D
C439        H444   1.064       .  S
C439        C440   1.357       .  D
C445        C446   1.541       .  S
C445        C451   1.545   1_455  S
C445       C1665   1.532   1_455  S
C446        H453   1.085       .  S
C446        C447   1.363       .  D
C447        C571   1.475       .  S
C447        C448   1.530       .  S
C448        C452   1.556       .  S
C448       C1666   1.582   1_455  S
C448        H454   1.110       .  S
C449       C1661   1.532       .  S
C449        H455   1.085       .  S
C449        C450   1.387       .  D
C450        C547   1.484       .  S
C450       C1664   1.582       .  S
C451        H456   1.082       .  S
C451        C452   1.358   1_655  D
C457        C458   1.528       .  S
C457        C463   1.547       .  S
C457        C461   1.551       .  S
C457        C469   1.600       .  S
C458        H465   1.085       .  S
C458        C459   1.399       .  D
C459        C460   1.589       .  S
C460        C464   1.570       .  S
C460        C462   1.528       .  S
C460        H466   1.110       .  S
C461        H467   1.086       .  S
C461        C462   1.356       .  D
C463        H468   1.086       .  S
C463        C464   1.351       .  D
C464       C1704   1.554   1_455  S
C469        C470   1.538       .  S
C469        C475   1.528       .  S
C469        C473   1.527       .  S
C470        H477   1.085       .  S
C470        C471   1.390       .  D
C471        C599   1.476       .  S
C471        C472   1.568       .  S
C472        C476   1.560       .  S
C472        C474   1.558       .  S
C472        H478   1.110       .  S
C473        H479   1.086       .  S
C473        C474   1.365       .  D
C474        C508   1.488       .  S
C475        H480   1.072       .  S
C475        C476   1.358       .  D
C476       C1716   1.557   1_455  S
C481        C482   1.522       .  S
C481        C487   1.529       .  S
C481        C485   1.549       .  S
C481        C493   1.612       .  S
C482        H489   1.086       .  S
C482        C483   1.366       .  D
C483        C484   1.551       .  S
C484        C488   1.555       .  S
C484        C486   1.567       .  S
C484        H490   1.110       .  S
C485        H491   1.085       .  S
C485        C486   1.393       .  D
C487        H492   1.073       .  S
C487        C488   1.361       .  D
C488       C1680   1.554       .  S
C493        C494   1.543       .  S
C493        C499   1.545       .  S
C493        C497   1.539       .  S
C494        H501   1.085       .  S
C494        C495   1.356       .  D
C495        C519   1.483       .  S
C495        C496   1.526       .  S
C496        C500   1.566       .  S
C496        C498   1.591       .  S
C496        H502   1.110       .  S
C497        H503   1.085       .  S
C497        C498   1.403       .  D
C498        C586   1.482       .  S
C499        H504   1.086       .  S
C499        C500   1.355       .  D
C500       C1692   1.557       .  S
O505        C508   1.264       .  A
O505       Cd510   2.518       .  S
C506        O515   1.262       .  A
C506        O511   1.270       .  A
C506        C558   1.461       .  S
O507        C513   1.266       .  A
O507       Cd510   2.448       .  S
C508        O516   1.268       .  A
C509        O514   1.264       .  A
C509        O512   1.266       .  A
Cd510       O517   2.387       .  S
Cd510       O516   2.471       .  S
Cd510       O515   2.423       .  S
Cd510       O511   2.473       .  S
Cd510       O514   2.472       .  S
Cd510       O512   2.487       .  S
C513        O517   1.261       .  A
C513       C1742   1.445   1_455  S
O518        C521   1.269       .  A
O518       Cd523   2.480       .  S
C519        O528   1.265       .  A
C519        O524   1.264       .  A
O520        C526   1.264       .  A
O520       Cd523   2.439       .  S
C521        O529   1.264       .  A
C521        C534   1.469       .  S
C522        O527   1.262       .  A
C522        O525   1.265       .  A
Cd523       O530   2.393       .  S
Cd523       O529   2.460       .  S
Cd523       O528   2.467       .  S
Cd523       O524   2.505       .  S
Cd523       O527   2.447       .  S
Cd523       O525   2.481       .  S
C526        O530   1.264       .  A
C526       C1729   1.445       .  S
O531        C534   1.269       .  A
O531       Cd536   2.475       .  S
C532        O541   1.265       .  A
C532        O537   1.265       .  A
O533        C539   1.264       .  A
O533       Cd536   2.460       .  S
C534        O542   1.265       .  A
C535        O540   1.266       .  A
C535        O538   1.263       .  A
Cd536       O543   2.410       .  S
Cd536       O542   2.462       .  S
Cd536       O541   2.466       .  S
Cd536       O537   2.452       .  S
Cd536       O540   2.471       .  S
Cd536       O538   2.457       .  S
C539        O543   1.264       .  A
C539        C552   1.453       .  S
O544        C547   1.263       .  A
O544       Cd549   2.488       .  S
C545        O554   1.261       .  A
C545        O550   1.268       .  A
C545        C584   1.459       .  S
O546        C552   1.267       .  A
O546       Cd549   2.471       .  S
C547        O555   1.268       .  A
C548        O553   1.263       .  A
C548        O551   1.265       .  A
Cd549       O556   2.401       .  S
Cd549       O555   2.488       .  S
Cd549       O554   2.438       .  S
Cd549       O550   2.465       .  S
Cd549       O553   2.459       .  S
Cd549       O551   2.465       .  S
C552        O556   1.262       .  A
O557        C560   1.263       .  A
O557       Cd562   2.488       .  S
C558        O567   1.262       .  A
C558        O563   1.267       .  A
O559        C565   1.267       .  A
O559       Cd562   2.471       .  S
C560        O568   1.268       .  A
C561        O566   1.262       .  A
C561        O564   1.265       .  A
Cd562       O569   2.407       .  S
Cd562       O568   2.495       .  S
Cd562       O567   2.463       .  S
Cd562       O563   2.458       .  S
Cd562       O566   2.451       .  S
Cd562       O564   2.488       .  S
C565        O569   1.263       .  A
C565        C578   1.455       .  S
O570        C573   1.270       .  A
O570       Cd575   2.474       .  S
C571        O580   1.266       .  A
C571        O576   1.264       .  A
O572        C578   1.265       .  A
O572       Cd575   2.468       .  S
C573        O581   1.265       .  A
C573        C597   1.469       .  S
C574        O579   1.267       .  A
C574        O577   1.263       .  A
Cd575       O582   2.404       .  S
Cd575       O581   2.456       .  S
Cd575       O580   2.476       .  S
Cd575       O576   2.454       .  S
Cd575       O579   2.490       .  S
Cd575       O577   2.451       .  S
C578        O582   1.262       .  A
O583        C586   1.264       .  A
O583       Cd588   2.477       .  S
C584        O593   1.262       .  A
C584        O589   1.268       .  A
O585        C591   1.268       .  A
O585       Cd588   2.501       .  S
C586        O594   1.268       .  A
C587        O592   1.266       .  A
C587        O590   1.263       .  A
Cd588       O595   2.412       .  S
Cd588       O594   2.494       .  S
Cd588       O593   2.442       .  S
Cd588       O589   2.459       .  S
Cd588       O592   2.501       .  S
Cd588       O590   2.453       .  S
C591        O595   1.261       .  A
C591       C1816   1.461       .  S
O596        C599   1.264       .  A
O596       Cd601   2.468       .  S
C597        O606   1.262       .  A
C597        O602   1.268       .  A
O598        C604   1.264       .  A
O598       Cd601   2.472       .  S
C599        O607   1.265       .  A
C600        O605   1.265       .  A
C600        O603   1.263       .  A
C600       C1807   1.461       .  S
Cd601       O608   2.461       .  S
Cd601       O607   2.473       .  S
Cd601       O606   2.464       .  S
Cd601       O602   2.489       .  S
Cd601       O605   2.493       .  S
Cd601       O603   2.422       .  S
C604        O608   1.263       .  A
O609        C612   1.264       .  A
O609       Cd614   2.489       .  S
C610        O619   1.261       .  A
C610        O615   1.268       .  A
C610        C662   1.459       .  S
O611        C617   1.268       .  A
O611       Cd614   2.463       .  S
C612        O620   1.267       .  A
C612        C718   1.483       .  S
C613        O618   1.264       .  A
C613        O616   1.264       .  A
C613        C943   1.464       .  S
Cd614       O621   2.408       .  S
Cd614       O620   2.483       .  S
Cd614       O619   2.442       .  S
Cd614       O615   2.462       .  S
Cd614       O618   2.476       .  S
Cd614       O616   2.455       .  S
C617        O621   1.261       .  A
C617        C630   1.452       .  S
O622        C625   1.268       .  A
O622       Cd627   2.484       .  S
C623        O632   1.266       .  A
C623        O628   1.266       .  A
C623        C739   1.478       .  S
O624        C630   1.262       .  A
O624       Cd627   2.443       .  S
C625        O633   1.265       .  A
C625        C651   1.473       .  S
C626        O631   1.265       .  A
C626        O629   1.263       .  A
C626        C917   1.462       .  S
Cd627       O634   2.420       .  S
Cd627       O633   2.480       .  S
Cd627       O632   2.471       .  S
Cd627       O628   2.466       .  S
Cd627       O631   2.461       .  S
Cd627       O629   2.457       .  S
C630        O634   1.265       .  A
O635        C638   1.269       .  A
O635       Cd640   2.460       .  S
C636        O645   1.267       .  A
C636        O641   1.263       .  A
C636        C790   1.482       .  S
O637        C643   1.264       .  A
O637       Cd640   2.453       .  S
C638        O646   1.261       .  A
C638        C701   1.459       .  S
C639        C656   1.454   1_545  S
Cd640       O647   2.461       .  S
Cd640       O646   2.437       .  S
Cd640       O645   2.481       .  S
Cd640       O641   2.484       .  S
Cd640       O644   2.477       .  S
Cd640       O642   2.402       .  S
C643        O647   1.264       .  A
C643        C986   1.461       .  S
O648        C651   1.269       .  A
O648       Cd653   2.490       .  S
C649        O658   1.266       .  A
C649        O654   1.264       .  A
C649        C763   1.480       .  S
O650        C656   1.264       .  A
O650       Cd653   2.460       .  S
C651        O659   1.265       .  A
C652        O657   1.265       .  A
C652        O655   1.264       .  A
C652        C995   1.469       .  S
Cd653       O660   2.409       .  S
Cd653       O659   2.469       .  S
Cd653       O658   2.492       .  S
Cd653       O654   2.462       .  S
Cd653       O657   2.499       .  S
Cd653       O655   2.460       .  S
C656        O660   1.264       .  A
O661        C664   1.264       .  A
O661       Cd666   2.491       .  S
C662        O671   1.261       .  A
C662        O667   1.268       .  A
O663        C669   1.267       .  A
O663       Cd666   2.479       .  S
C664        O672   1.267       .  A
C664        C766   1.482       .  S
C665        O670   1.263       .  A
C665        O668   1.263       .  A
C665       C1008   1.461       .  S
Cd666       O673   2.405       .  S
Cd666       O672   2.472       .  S
Cd666       O671   2.441       .  S
Cd666       O667   2.466       .  S
Cd666       O670   2.470       .  S
Cd666       O668   2.455       .  S
C669        O673   1.261       .  A
C669        C682   1.455       .  S
O674        C677   1.268       .  A
O674       Cd679   2.489       .  S
C675        O684   1.267       .  A
C675        O680   1.265       .  A
C675        C787   1.479       .  S
O676       Cd679   2.464       .  S
C677        O685   1.265       .  A
C677        C690   1.474       .  S
C678        O683   1.265       .  A
C678        O681   1.264       .  A
C678        C973   1.474       .  S
Cd679       O686   2.419       .  S
Cd679       O685   2.479       .  S
Cd679       O684   2.483       .  S
Cd679       O680   2.462       .  S
Cd679       O683   2.487       .  S
Cd679       O681   2.490       .  S
O687        C690   1.269       .  A
O687       Cd692   2.490       .  S
C688        O697   1.266       .  A
C688        O693   1.266       .  A
C688        C715   1.477       .  S
O689        C695   1.262       .  A
O689       Cd692   2.450       .  S
C690        O698   1.265       .  A
C691        O696   1.265       .  A
C691        O694   1.264       .  A
C691        C956   1.466       .  S
Cd692       O699   2.435       .  S
Cd692       O698   2.472       .  S
Cd692       O697   2.477       .  S
Cd692       O693   2.454       .  S
Cd692       O696   2.465       .  S
Cd692       O694   2.477       .  S
C695        O699   1.265       .  A
C695        C708   1.455       .  S
O700        C703   1.263       .  A
O700       Cd705   2.493       .  S
C701        O710   1.260       .  A
C701        O706   1.268       .  A
O702        C708   1.268       .  A
O702       Cd705   2.466       .  S
C703        O711   1.267       .  A
C703        C742   1.483       .  S
C704        O709   1.264       .  A
C704        O707   1.264       .  A
C704        C934   1.469       .  S
Cd705       O712   2.418       .  S
Cd705       O711   2.492       .  S
Cd705       O710   2.436       .  S
Cd705       O706   2.472       .  S
Cd705       O709   2.489       .  S
Cd705       O707   2.468       .  S
C708        O712   1.261       .  A
C713        C719   1.545       .  S
C713        C717   1.536       .  S
C713        C725   1.605   1_556  S
C714        H721   1.085       .  S
C714        C715   1.366       .  D
C716        C720   1.555       .  S
C716        C718   1.580       .  S
C716        H722   1.110       .  S
C717        H723   1.085       .  S
C717        C718   1.390       .  D
C719        H724   1.082       .  S
C719        C720   1.357       .  D
C720        C744   1.550       .  S
C725        C726   1.547       .  S
C725        C731   1.540       .  S
C726        H733   1.085       .  S
C726        C727   1.366       .  D
C727        C862   1.480       .  S
C727        C728   1.529       .  S
C728        C732   1.554       .  S
C728        H734   1.110       .  S
C729        H735   1.085       .  S
C729        C730   1.392       .  D
C730        C825   1.487       .  S
C731        H736   1.063   1_564  S
C731        C732   1.356       .  D
C732        C756   1.550       .  S
C737        C738   1.543       .  S
C737        C743   1.544       .  S
C737        C749   1.602   1_556  S
C738        H745   1.085       .  S
C738        C739   1.365       .  D
C739        C740   1.529       .  S
C740        C744   1.557       .  S
C740        H746   1.110       .  S
C741        H747   1.085       .  S
C741        C742   1.389       .  D
C743        H748   1.082   1_565  S
C743        C744   1.356       .  D
C749        C755   1.540       .  S
C749        C753   1.535       .  S
C750        H757   1.085       .  S
C750        C751   1.363       .  D
C751        C810   1.476       .  S
C752        C756   1.554       .  S
C752        C754   1.582       .  S
C752        H758   1.110       .  S
C753        H759   1.085       .  S
C753        C754   1.391       .  D
C754        C877   1.485       .  S
C755        H760   1.063   1_554  S
C755        C756   1.356       .  D
C761        C762   1.545       .  S
C761        C767   1.544       .  S
C761        C765   1.529       .  S
C761        C773   1.593       .  S
C762        H769   1.085       .  S
C762        C763   1.364       .  D
C763        C764   1.531       .  S
C764        C768   1.560       .  S
C764        C766   1.583       .  S
C764        H770   1.110       .  S
C765        H771   1.085       .  S
C765        C766   1.387       .  D
C767        H772   1.081       .  S
C767        C768   1.357       .  D
C773        C774   1.548       .  S
C773        C779   1.540       .  S
C773        C777   1.529       .  S
C774        H781   1.085       .  S
C774        C775   1.366       .  D
C775        C901   1.479       .  S
C775        C776   1.529       .  S
C776        C780   1.558       .  S
C776        C778   1.582       .  S
C776        H782   1.110       .  S
C777        H783   1.085       .  S
C777        C778   1.387       .  D
C778        C851   1.479       .  S
C779        H784   1.064       .  S
C779        C780   1.357       .  D
C785        C786   1.544       .  S
C785        C791   1.544       .  S
C785        C789   1.530       .  S
C785        C797   1.595       .  S
C786        H793   1.085       .  S
C786        C787   1.364       .  D
C787        C788   1.530       .  S
C788        C792   1.558       .  S
C788        C790   1.582       .  S
C788        H794   1.110       .  S
C789        H795   1.085       .  S
C789        C790   1.388       .  D
C791        H796   1.081       .  S
C791        C792   1.358       .  D
C797        C798   1.547       .  S
C797        C803   1.541       .  S
C797        C801   1.530       .  S
C798        H805   1.085       .  S
C798        C799   1.366       .  D
C799        C836   1.480       .  S
C799        C800   1.531       .  S
C800        C804   1.558       .  S
C800        C802   1.584       .  S
C800        H806   1.110       .  S
C801        H807   1.085       .  S
C801        C802   1.388       .  D
C802        C890   1.484       .  S
C803        H808   1.064       .  S
C803        C804   1.358       .  D
O809        C812   1.269       .  A
O809       Cd814   2.492       .  S
C810        O819   1.266       .  A
C810        O815   1.265       .  A
O811        C817   1.264       .  A
O811       Cd814   2.457       .  S
C812        O820   1.265       .  A
C812        C838   1.475       .  S
C813        O818   1.265       .  A
C813        O816   1.264       .  A
C813       C1156   1.463       .  S
Cd814       O821   2.416       .  S
Cd814       O820   2.475       .  S
Cd814       O819   2.479       .  S
Cd814       O815   2.455       .  S
Cd814       O818   2.464       .  S
Cd814       O816   2.460       .  S
C817        O821   1.265       .  A
C817        C830   1.454       .  S
O822        C825   1.264       .  A
O822       Cd827   2.501       .  S
C823        O832   1.261       .  A
C823        O828   1.269       .  A
C823        C888   1.462       .  S
O824        C830   1.268       .  A
O824       Cd827   2.479       .  S
C825        O833   1.267       .  A
C826        O831   1.264       .  A
C826        O829   1.264       .  A
C826       C1182   1.466       .  S
Cd827       O834   2.410       .  S
Cd827       O833   2.501       .  S
Cd827       O832   2.440       .  S
Cd827       O828   2.478       .  S
Cd827       O831   2.484       .  S
Cd827       O829   2.454       .  S
C830        O834   1.261       .  A
O835        C838   1.269       .  A
O835       Cd840   2.496       .  S
C836        O845   1.267       .  A
C836        O841   1.264       .  A
O837       Cd840   2.477       .  S
C838        O846   1.265       .  A
C839        O844   1.266       .  A
C839        O842   1.264       .  A
C839       C1195   1.469       .  S
Cd840       O847   2.393       .  S
Cd840       O846   2.477       .  S
Cd840       O845   2.499       .  S
Cd840       O841   2.457       .  S
Cd840       O844   2.495       .  S
Cd840       O842   2.457       .  S
C843        C856   1.454       .  S
O848        C851   1.263       .  A
O848       Cd853   2.487       .  S
C849        O858   1.261       .  A
C849        O854   1.269       .  A
C849        C875   1.456       .  S
O850        C856   1.269       .  A
O850       Cd853   2.490       .  S
C851        O859   1.266       .  A
C852        O857   1.264       .  A
C852        O855   1.264       .  A
C852       C1130   1.463       .  S
Cd853       O860   2.383       .  S
Cd853       O859   2.475       .  S
Cd853       O858   2.429       .  S
Cd853       O854   2.456       .  S
Cd853       O857   2.452       .  S
Cd853       O855   2.468       .  S
C856        O860   1.261       .  A
O861        C864   1.269       .  A
O861       Cd866   2.483       .  S
C862        O871   1.266       .  A
C862        O867   1.265       .  A
O863        C869   1.264       .  A
O863       Cd866   2.461       .  S
C864        O872   1.265       .  A
C864        C903   1.474       .  S
C865        O870   1.265       .  A
C865        O868   1.264       .  A
C865       C1169   1.464       .  S
Cd866       O873   2.414       .  S
Cd866       O872   2.475       .  S
Cd866       O871   2.490       .  S
Cd866       O867   2.464       .  S
Cd866       O870   2.452       .  S
Cd866       O868   2.477       .  S
C869        O873   1.264       .  A
C869        C882   1.454       .  S
O874        C877   1.263       .  A
O874       Cd879   2.500       .  S
C875        O884   1.260       .  A
C875        O880   1.268       .  A
O876        C882   1.268       .  A
O876       Cd879   2.480       .  S
C877        O885   1.267       .  A
C878        O883   1.264       .  A
C878        O881   1.264       .  A
C878       C1143   1.465       .  S
Cd879       O886   2.407       .  S
Cd879       O885   2.493       .  S
Cd879       O884   2.426       .  S
Cd879       O880   2.462       .  S
Cd879       O883   2.473       .  S
Cd879       O881   2.462       .  S
C882        O886   1.260       .  A
O887        C890   1.263       .  A
O887       Cd892   2.501       .  S
C888        O897   1.262       .  A
C888        O893   1.268       .  A
O889       Cd892   2.498       .  S
C890        O898   1.267       .  A
C891        O896   1.264       .  A
C891        O894   1.263       .  A
C891       C1212   1.464       .  S
Cd892       O899   2.400       .  S
Cd892       O898   2.481       .  S
Cd892       O897   2.447       .  S
Cd892       O893   2.462       .  S
Cd892       O896   2.478       .  S
Cd892       O894   2.461       .  S
C895        C908   1.459   1_545  S
O900        C903   1.269       .  A
O900       Cd905   2.497       .  S
C901        O910   1.266       .  A
C901        O906   1.265       .  A
O902        C908   1.264       .  A
O902       Cd905   2.477       .  S
C903        O911   1.264       .  A
C904        O909   1.265       .  A
C904        O907   1.265       .  A
C904       C1117   1.471       .  S
Cd905       O912   2.414       .  S
Cd905       O911   2.472       .  S
Cd905       O910   2.493       .  S
Cd905       O906   2.451       .  S
Cd905       O909   2.475       .  S
Cd905       O907   2.483       .  S
C908        O912   1.264       .  A
O913        C916   1.263       .  A
O913       Cd918   2.478       .  S
C914        O923   1.261       .  A
C914        O919   1.268       .  A
C914        C992   1.460       .  S
O915        C921   1.267       .  A
O915       Cd918   2.472       .  S
C916        O924   1.267       .  A
C916       C1022   1.481       .  S
C917        O922   1.262       .  A
C917        O920   1.265       .  A
Cd918       O925   2.412       .  S
Cd918       O924   2.486       .  S
Cd918       O923   2.439       .  S
Cd918       O919   2.472       .  S
Cd918       O922   2.455       .  S
Cd918       O920   2.467       .  S
C921        O925   1.262       .  A
C921        C930   1.456       .  S
O926        C929   1.265       .  A
O926       Cd931   2.454       .  S
C927        O936   1.265       .  A
C927        O932   1.269       .  A
C927        C979   1.467       .  S
O928        C934   1.267       .  A
O928       Cd931   2.491       .  S
C929        O937   1.267       .  A
C929       C1043   1.475       .  S
C930        O935   1.265       .  A
C930        O933   1.264       .  A
Cd931       O938   2.458       .  S
Cd931       O937   2.469       .  S
Cd931       O936   2.452       .  S
Cd931       O932   2.471       .  S
Cd931       O935   2.464       .  S
Cd931       O933   2.413       .  S
C934        O938   1.263       .  A
O939        C942   1.269       .  A
O939       Cd944   2.474       .  S
C940        O949   1.266       .  A
C940        O945   1.265       .  A
C940       C1019   1.472       .  S
O941        C947   1.265       .  A
O941       Cd944   2.466       .  S
C942        O950   1.264       .  A
C942       C1007   1.464       .  S
C943        O948   1.266       .  A
C943        O946   1.263       .  A
Cd944       O951   2.411       .  S
Cd944       O950   2.445       .  S
Cd944       O949   2.462       .  S
Cd944       O945   2.449       .  S
Cd944       O948   2.479       .  S
Cd944       O946   2.453       .  S
C947        O951   1.263       .  A
C947        C960   1.455       .  S
O952        C955   1.263       .  A
O952       Cd957   2.484       .  S
C953        O962   1.261       .  A
C953        O958   1.267       .  A
C953        C968   1.463       .  S
O954        C960   1.267       .  A
O954       Cd957   2.472       .  S
C955        O963   1.268       .  A
C955       C1046   1.484       .  S
C956        O961   1.262       .  A
C956        O959   1.265       .  A
Cd957       O964   2.410       .  S
Cd957       O963   2.496       .  S
Cd957       O962   2.459       .  S
Cd957       O958   2.469       .  S
Cd957       O961   2.458       .  S
Cd957       O959   2.484       .  S
C960        O964   1.263       .  A
O965        C968   1.270       .  A
O965       Cd970   2.477       .  S
C966        O975   1.268       .  A
C966        O971   1.265       .  A
C966       C1070   1.490       .  S
O967        C973   1.264       .  A
O967       Cd970   2.482       .  S
C968        O976   1.263       .  A
C969        O974   1.266       .  A
C969        O972   1.261       .  A
C969       C2198   1.448   1_455  S
Cd970       O977   2.497       .  S
Cd970       O976   2.438       .  S
Cd970       O975   2.500       .  S
Cd970       O971   2.503       .  S
Cd970       O974   2.447       .  S
Cd970       O972   2.400       .  S
C973        O977   1.266       .  A
O978        C981   1.264       .  A
O978       Cd983   2.510       .  S
C979        O988   1.264       .  A
C979        O984   1.269       .  A
O980        C986   1.263       .  A
O980       Cd983   2.451       .  S
C981        O989   1.265       .  A
C981       C1091   1.479       .  S
C982        O987   1.264       .  A
C982        O985   1.264       .  A
C982       C2185   1.448       .  S
Cd983       O990   2.471       .  S
Cd983       O989   2.435       .  S
Cd983       O988   2.457       .  S
Cd983       O984   2.476       .  S
Cd983       O987   2.437       .  S
Cd983       O985   2.402       .  S
C986        O990   1.265       .  A
O991        C994   1.265       .  A
O991       Cd996   2.473       .  S
C992       O1001   1.262       .  A
C992        O997   1.269       .  A
O993        C999   1.267       .  A
O993       Cd996   2.493       .  S
C994       O1002   1.267       .  A
C994       C1094   1.483       .  S
C995       O1000   1.266       .  A
C995        O998   1.263       .  A
Cd996      O1003   2.413       .  S
Cd996      O1002   2.502       .  S
Cd996      O1001   2.442       .  S
Cd996       O997   2.461       .  S
Cd996      O1000   2.495       .  S
Cd996       O998   2.450       .  S
C999       O1003   1.260       .  A
C999       C2228   1.459       .  S
O1004      C1007   1.267       .  A
O1004     Cd1009   2.465       .  S
C1005      O1014   1.266       .  A
C1005      O1010   1.264       .  A
C1005      C1067   1.471       .  S
O1006      C1012   1.265       .  A
O1006     Cd1009   2.486       .  S
C1007      O1015   1.263       .  A
C1008      O1013   1.265       .  A
C1008      O1011   1.263       .  A
Cd1009     O1016   2.417       .  S
Cd1009     O1015   2.459       .  S
Cd1009     O1014   2.453       .  S
Cd1009     O1010   2.459       .  S
Cd1009     O1013   2.470       .  S
Cd1009     O1011   2.447       .  S
C1012      O1016   1.263       .  A
C1012      C2215   1.459       .  S
C1017      C1018   1.542       .  S
C1017      C1023   1.543   1_455  S
C1017      C2237   1.533   1_455  S
C1017      C1029   1.593   1_556  S
C1018      H1025   1.085       .  S
C1018      C1019   1.361       .  D
C1019      C1020   1.528       .  S
C1020      C1024   1.555       .  S
C1020      C2238   1.580   1_455  S
C1020      H1026   1.110       .  S
C1021      C2233   1.533       .  S
C1021      H1027   1.085       .  S
C1021      C1022   1.390       .  D
C1022      C2236   1.580       .  S
C1023      H1028   1.064       .  S
C1023      C1024   1.359   1_655  D
C1024      C1048   1.550       .  S
C1029      C2246   1.541   1_455  S
C1029      C1035   1.544       .  S
C1029      C1033   1.534       .  S
C1030      C2245   1.541       .  S
C1030      H1037   1.085       .  S
C1030      C1031   1.363       .  D
C1031      C1140   1.473       .  S
C1031      C2248   1.528       .  S
C1032      C2247   1.528   1_455  S
C1032      C1036   1.556       .  S
C1032      C1034   1.581       .  S
C1032      H1038   1.110       .  S
C1033      H1039   1.085       .  S
C1033      C1034   1.388       .  D
C1034      C1168   1.483       .  S
C1035      H1040   1.082       .  S
C1035      C1036   1.357       .  D
C1036      C1060   1.549       .  S
C1041      C2258   1.542   1_455  S
C1041      C1047   1.540       .  S
C1041      C1045   1.534       .  S
C1041      C1053   1.593   1_556  S
C1042      C2257   1.542       .  S
C1042      H1049   1.085       .  S
C1042      C1043   1.362       .  D
C1043      C2260   1.530       .  S
C1044      C2259   1.530   1_455  S
C1044      C1048   1.557       .  S
C1044      C1046   1.581       .  S
C1044      H1050   1.110       .  S
C1045      H1051   1.085       .  S
C1045      C1046   1.389       .  D
C1047      H1052   1.064       .  S
C1047      C1048   1.357       .  D
C1053      C1054   1.540       .  S
C1053      C1059   1.545   1_455  S
C1053      C2273   1.532   1_455  S
C1054      H1061   1.085       .  S
C1054      C1055   1.363       .  D
C1055      C1179   1.474       .  S
C1055      C1056   1.530       .  S
C1056      C1060   1.556       .  S
C1056      C2274   1.582   1_455  S
C1056      H1062   1.110       .  S
C1057      C2269   1.532       .  S
C1057      H1063   1.085       .  S
C1057      C1058   1.387       .  D
C1058      C1155   1.484       .  S
C1058      C2272   1.582       .  S
C1059      H1064   1.082       .  S
C1059      C1060   1.358   1_655  D
C1065      C1066   1.528       .  S
C1065      C1071   1.547       .  S
C1065      C1069   1.552       .  S
C1065      C1077   1.601       .  S
C1066      H1073   1.085       .  S
C1066      C1067   1.399       .  D
C1067      C1068   1.590       .  S
C1068      C1072   1.571       .  S
C1068      C1070   1.529       .  S
C1068      H1074   1.110       .  S
C1069      H1075   1.086       .  S
C1069      C1070   1.356       .  D
C1071      H1076   1.086       .  S
C1071      C1072   1.351       .  D
C1072      C2312   1.555   1_455  S
C1077      C1078   1.538       .  S
C1077      C1083   1.528       .  S
C1077      C1081   1.528       .  S
C1078      H1085   1.085       .  S
C1078      C1079   1.390       .  D
C1079      C1207   1.475       .  S
C1079      C1080   1.568       .  S
C1080      C1084   1.561       .  S
C1080      C1082   1.558       .  S
C1080      H1086   1.110       .  S
C1081      H1087   1.086       .  S
C1081      C1082   1.365       .  D
C1082      C1116   1.488       .  S
C1083      H1088   1.072       .  S
C1083      C1084   1.358       .  D
C1084      C2324   1.558   1_455  S
C1089      C1090   1.521       .  S
C1089      C1095   1.529       .  S
C1089      C1093   1.549       .  S
C1089      C1101   1.612       .  S
C1090      H1097   1.086       .  S
C1090      C1091   1.366       .  D
C1091      C1092   1.551       .  S
C1092      C1096   1.555       .  S
C1092      C1094   1.567       .  S
C1092      H1098   1.110       .  S
C1093      H1099   1.085       .  S
C1093      C1094   1.393       .  D
C1095      H1100   1.073       .  S
C1095      C1096   1.361       .  D
C1096      C2288   1.555       .  S
C1101      C1102   1.543       .  S
C1101      C1107   1.545       .  S
C1101      C1105   1.539       .  S
C1102      H1109   1.085       .  S
C1102      C1103   1.355       .  D
C1103      C1127   1.483       .  S
C1103      C1104   1.526       .  S
C1104      C1108   1.567       .  S
C1104      C1106   1.591       .  S
C1104      H1110   1.110       .  S
C1105      H1111   1.085       .  S
C1105      C1106   1.402       .  D
C1106      C1194   1.482       .  S
C1107      H1112   1.086       .  S
C1107      C1108   1.355       .  D
C1108      C2300   1.558       .  S
O1113      C1116   1.264       .  A
O1113     Cd1118   2.519       .  S
C1114      O1123   1.262       .  A
C1114      O1119   1.270       .  A
C1114      C1166   1.461       .  S
O1115      C1121   1.266       .  A
O1115     Cd1118   2.448       .  S
C1116      O1124   1.268       .  A
C1117      O1122   1.264       .  A
C1117      O1120   1.266       .  A
Cd1118     O1125   2.386       .  S
Cd1118     O1124   2.470       .  S
Cd1118     O1123   2.424       .  S
Cd1118     O1119   2.470       .  S
Cd1118     O1122   2.474       .  S
Cd1118     O1120   2.485       .  S
C1121      O1125   1.261       .  A
C1121      C2350   1.445   1_455  S
O1126      C1129   1.269       .  A
O1126     Cd1131   2.480       .  S
C1127      O1136   1.265       .  A
C1127      O1132   1.264       .  A
O1128      C1134   1.264       .  A
O1128     Cd1131   2.441       .  S
C1129      O1137   1.264       .  A
C1129      C1142   1.469       .  S
C1130      O1135   1.262       .  A
C1130      O1133   1.265       .  A
Cd1131     O1138   2.392       .  S
Cd1131     O1137   2.459       .  S
Cd1131     O1136   2.467       .  S
Cd1131     O1132   2.505       .  S
Cd1131     O1135   2.449       .  S
Cd1131     O1133   2.480       .  S
C1134      O1138   1.264       .  A
C1134      C2337   1.445       .  S
O1139      C1142   1.269       .  A
O1139     Cd1144   2.476       .  S
C1140      O1149   1.265       .  A
C1140      O1145   1.265       .  A
O1141      C1147   1.264       .  A
O1141     Cd1144   2.462       .  S
C1142      O1150   1.265       .  A
C1143      O1148   1.266       .  A
C1143      O1146   1.264       .  A
Cd1144     O1151   2.411       .  S
Cd1144     O1150   2.463       .  S
Cd1144     O1149   2.463       .  S
Cd1144     O1145   2.452       .  S
Cd1144     O1148   2.470       .  S
Cd1144     O1146   2.460       .  S
C1147      O1151   1.264       .  A
C1147      C1160   1.454       .  S
O1152      C1155   1.263       .  A
O1152     Cd1157   2.489       .  S
C1153      O1162   1.261       .  A
C1153      O1158   1.268       .  A
C1153      C1192   1.459       .  S
O1154      C1160   1.267       .  A
O1154     Cd1157   2.473       .  S
C1155      O1163   1.268       .  A
C1156      O1161   1.263       .  A
C1156      O1159   1.265       .  A
Cd1157     O1164   2.403       .  S
Cd1157     O1163   2.489       .  S
Cd1157     O1162   2.439       .  S
Cd1157     O1158   2.466       .  S
Cd1157     O1161   2.462       .  S
Cd1157     O1159   2.467       .  S
C1160      O1164   1.262       .  A
O1165      C1168   1.263       .  A
O1165     Cd1170   2.485       .  S
C1166      O1175   1.261       .  A
C1166      O1171   1.267       .  A
O1167      C1173   1.267       .  A
O1167     Cd1170   2.468       .  S
C1168      O1176   1.268       .  A
C1169      O1174   1.262       .  A
C1169      O1172   1.265       .  A
Cd1170     O1177   2.408       .  S
Cd1170     O1176   2.491       .  S
Cd1170     O1175   2.460       .  S
Cd1170     O1171   2.459       .  S
Cd1170     O1174   2.446       .  S
Cd1170     O1172   2.486       .  S
C1173      O1177   1.263       .  A
C1173      C1186   1.454       .  S
O1178      C1181   1.270       .  A
O1178     Cd1183   2.475       .  S
C1179      O1188   1.266       .  A
C1179      O1184   1.264       .  A
O1180      C1186   1.265       .  A
O1180     Cd1183   2.465       .  S
C1181      O1189   1.265       .  A
C1181      C1205   1.468       .  S
C1182      O1187   1.267       .  A
C1182      O1185   1.263       .  A
Cd1183     O1190   2.407       .  S
Cd1183     O1189   2.455       .  S
Cd1183     O1188   2.473       .  S
Cd1183     O1184   2.456       .  S
Cd1183     O1187   2.490       .  S
Cd1183     O1185   2.451       .  S
C1186      O1190   1.262       .  A
O1191      C1194   1.264       .  A
O1191     Cd1196   2.474       .  S
C1192      O1201   1.262       .  A
C1192      O1197   1.268       .  A
O1193      C1199   1.268       .  A
O1193     Cd1196   2.502       .  S
C1194      O1202   1.268       .  A
C1195      O1200   1.266       .  A
C1195      O1198   1.263       .  A
Cd1196     O1203   2.413       .  S
Cd1196     O1202   2.495       .  S
Cd1196     O1201   2.444       .  S
Cd1196     O1197   2.459       .  S
Cd1196     O1200   2.501       .  S
Cd1196     O1198   2.452       .  S
C1199      O1203   1.261       .  A
C1199      C2424   1.461       .  S
O1204      C1207   1.264       .  A
O1204     Cd1209   2.467       .  S
C1205      O1214   1.263       .  A
C1205      O1210   1.268       .  A
O1206      C1212   1.264       .  A
O1206     Cd1209   2.472       .  S
C1207      O1215   1.266       .  A
C1208      O1213   1.265       .  A
C1208      O1211   1.263       .  A
C1208      C2415   1.461   1_455  S
Cd1209     O1216   2.459       .  S
Cd1209     O1215   2.472       .  S
Cd1209     O1214   2.463       .  S
Cd1209     O1210   2.486       .  S
Cd1209     O1213   2.493       .  S
Cd1209     O1211   2.421       .  S
C1212      O1216   1.263       .  A
O1217      C1220   1.264       .  A
O1217     Cd1222   2.491       .  S
C1218      O1227   1.261       .  A
C1218      O1223   1.267       .  A
C1218      C1270   1.459       .  S
O1219      C1225   1.268       .  A
O1219     Cd1222   2.466       .  S
C1220      O1228   1.267       .  A
C1220      C1326   1.483       .  S
C1221      O1226   1.263       .  A
C1221      O1224   1.264       .  A
C1221      C1551   1.464       .  S
Cd1222     O1229   2.411       .  S
Cd1222     O1228   2.482       .  S
Cd1222     O1227   2.442       .  S
Cd1222     O1223   2.461       .  S
Cd1222     O1226   2.476       .  S
Cd1222     O1224   2.458       .  S
C1225      O1229   1.261       .  A
C1225      C1238   1.453       .  S
O1230      C1233   1.268       .  A
O1230     Cd1235   2.485       .  S
C1231      O1240   1.266       .  A
C1231      O1236   1.266       .  A
C1231      C1347   1.479       .  S
O1232      C1238   1.263       .  A
O1232     Cd1235   2.446       .  S
C1233      O1241   1.265       .  A
C1233      C1259   1.473       .  S
C1234      O1239   1.265       .  A
C1234      O1237   1.264       .  A
C1234      C1525   1.462       .  S
Cd1235     O1242   2.422       .  S
Cd1235     O1241   2.480       .  S
Cd1235     O1240   2.476       .  S
Cd1235     O1236   2.465       .  S
Cd1235     O1239   2.460       .  S
Cd1235     O1237   2.460       .  S
C1238      O1242   1.265       .  A
O1243      C1246   1.269       .  A
O1243     Cd1248   2.457       .  S
C1244      O1253   1.267       .  A
C1244      O1249   1.263       .  A
C1244      C1398   1.481       .  S
O1245      C1251   1.264       .  A
O1245     Cd1248   2.453       .  S
C1246      O1254   1.261       .  A
C1246      C1309   1.459       .  S
C1247      O1860   1.267       .  A
C1247      O1858   1.261       .  A
C1247      C1264   1.454       .  S
Cd1248     O1255   2.460       .  S
Cd1248     O1254   2.435       .  S
Cd1248     O1253   2.478       .  S
Cd1248     O1249   2.486       .  S
Cd1248     O1252   2.479       .  S
Cd1248     O1250   2.400       .  S
O1250      C1855   1.261       .  A
C1251      O1255   1.264       .  A
C1251      C1594   1.461       .  S
O1252      C1855   1.267       .  A
O1256      C1259   1.269       .  A
O1256     Cd1261   2.490       .  S
C1257      O1266   1.266       .  A
C1257      O1262   1.264       .  A
C1257      C1371   1.480       .  S
O1258      C1264   1.264       .  A
O1258     Cd1261   2.459       .  S
C1259      O1267   1.265       .  A
C1260      O1265   1.265       .  A
C1260      O1263   1.264       .  A
C1260      C1603   1.469       .  S
Cd1261     O1268   2.412       .  S
Cd1261     O1267   2.470       .  S
Cd1261     O1266   2.492       .  S
Cd1261     O1262   2.461       .  S
Cd1261     O1265   2.499       .  S
Cd1261     O1263   2.460       .  S
C1264      O1268   1.264       .  A
O1269      C1272   1.264       .  A
O1269     Cd1274   2.491       .  S
C1270      O1279   1.261       .  A
C1270      O1275   1.267       .  A
O1271      C1277   1.267       .  A
O1271     Cd1274   2.474       .  S
C1272      O1280   1.267       .  A
C1272      C1374   1.482       .  S
C1273      O1278   1.263       .  A
C1273      O1276   1.263       .  A
C1273      C1616   1.461       .  S
Cd1274     O1281   2.408       .  S
Cd1274     O1280   2.473       .  S
Cd1274     O1279   2.441       .  S
Cd1274     O1275   2.466       .  S
Cd1274     O1278   2.471       .  S
Cd1274     O1276   2.456       .  S
C1277      O1281   1.262       .  A
C1277      C1290   1.455       .  S
O1282      C1285   1.268       .  A
O1282     Cd1287   2.487       .  S
C1283      O1292   1.267       .  A
C1283      O1288   1.265       .  A
C1283      C1395   1.479       .  S
O1284      C1898   1.264   1_545  A
O1284     Cd1287   2.467       .  S
C1285      O1293   1.265       .  A
C1285      C1298   1.473       .  S
C1286      O1291   1.265       .  A
C1286      O1289   1.264       .  A
C1286      C1581   1.474       .  S
Cd1287     O1294   2.415       .  S
Cd1287     O1293   2.478       .  S
Cd1287     O1292   2.485       .  S
Cd1287     O1288   2.462       .  S
Cd1287     O1291   2.485       .  S
Cd1287     O1289   2.490       .  S
C1290      O1892   1.264       .  A
C1290      O1902   1.264       .  A
O1294      C1898   1.264   1_545  A
O1295      C1298   1.269       .  A
O1295     Cd1300   2.490       .  S
C1296      O1305   1.266       .  A
C1296      O1301   1.266       .  A
C1296      C1323   1.477       .  S
O1297      C1303   1.262       .  A
O1297     Cd1300   2.453       .  S
C1298      O1306   1.265       .  A
C1299      O1304   1.265       .  A
C1299      O1302   1.264       .  A
C1299      C1564   1.466       .  S
Cd1300     O1307   2.432       .  S
Cd1300     O1306   2.468       .  S
Cd1300     O1305   2.477       .  S
Cd1300     O1301   2.456       .  S
Cd1300     O1304   2.461       .  S
Cd1300     O1302   2.478       .  S
C1303      O1307   1.265       .  A
C1303      C1316   1.455       .  S
O1308      C1311   1.263       .  A
O1308     Cd1313   2.491       .  S
C1309      O1318   1.260       .  A
C1309      O1314   1.268       .  A
O1310      C1316   1.268       .  A
O1310     Cd1313   2.468       .  S
C1311      O1319   1.267       .  A
C1311      C1350   1.484       .  S
C1312      O1317   1.264       .  A
C1312      O1315   1.264       .  A
C1312      C1542   1.468       .  S
Cd1313     O1320   2.416       .  S
Cd1313     O1319   2.494       .  S
Cd1313     O1318   2.433       .  S
Cd1313     O1314   2.471       .  S
Cd1313     O1317   2.485       .  S
Cd1313     O1315   2.466       .  S
C1316      O1320   1.261       .  A
C1321      C1930   1.544       .  S
C1321      C1327   1.543       .  S
C1321      C1325   1.535       .  S
C1321      C1333   1.607   1_556  S
C1322      C1929   1.543   1_545  S
C1322      H1329   1.085       .  S
C1322      C1323   1.365       .  D
C1323      C1932   1.529   1_545  S
C1324      C1931   1.529       .  S
C1324      C1328   1.554       .  S
C1324      C1326   1.581       .  S
C1324      H1330   1.110       .  S
C1325      H1331   1.085       .  S
C1325      C1326   1.391       .  D
C1327      H1332   1.060       .  S
C1327      C1328   1.356       .  D
C1328      C1352   1.551       .  S
C1333      C1334   1.546       .  S
C1333      C1339   1.543       .  S
C1333      C1945   1.536       .  S
C1334      H1341   1.085       .  S
C1334      C1335   1.366       .  D
C1335      C1470   1.479       .  S
C1335      C1336   1.529       .  S
C1336      C1340   1.554       .  S
C1336      C1946   1.583       .  S
C1336      H1342   1.110       .  S
C1337      C1941   1.536   1_545  S
C1337      H1343   1.085       .  S
C1337      C1338   1.392       .  D
C1338      C1433   1.487       .  S
C1338      C1944   1.583   1_545  S
C1339      H1344   1.061   1_554  S
C1339      C1340   1.356       .  D
C1340      C1364   1.549       .  S
C1345      C1346   1.544       .  S
C1345      C1351   1.540       .  S
C1345      C1957   1.534       .  S
C1345      C1357   1.599   1_556  S
C1346      H1353   1.085       .  S
C1346      C1347   1.366       .  D
C1347      C1348   1.529       .  S
C1348      C1352   1.556       .  S
C1348      C1958   1.583       .  S
C1348      H1354   1.110       .  S
C1349      C1953   1.535   1_545  S
C1349      H1355   1.085       .  S
C1349      C1350   1.389       .  D
C1350      C1956   1.582   1_545  S
C1351      H1356   1.081       .  S
C1351      C1352   1.356       .  D
C1357      C1966   1.543       .  S
C1357      C1363   1.541       .  S
C1357      C1361   1.534       .  S
C1358      C1965   1.544   1_545  S
C1358      H1365   1.085       .  S
C1358      C1359   1.364       .  D
C1359      C1418   1.476       .  S
C1359      C1968   1.529   1_545  S
C1360      C1967   1.529       .  S
C1360      C1364   1.554       .  S
C1360      C1362   1.582       .  S
C1360      H1366   1.110       .  S
C1361      H1367   1.085       .  S
C1361      C1362   1.390       .  D
C1362      C1485   1.485       .  S
C1363      H1368   1.081       .  S
C1363      C1364   1.358       .  D
C1369      C1370   1.545       .  S
C1369      C1375   1.543       .  S
C1369      C1373   1.529       .  S
C1369      C1381   1.594       .  S
C1370      H1377   1.085       .  S
C1370      C1371   1.364       .  D
C1371      C1372   1.531       .  S
C1372      C1376   1.559       .  S
C1372      C1374   1.583       .  S
C1372      H1378   1.110       .  S
C1373      H1379   1.085       .  S
C1373      C1374   1.387       .  D
C1375      H1380   1.081       .  S
C1375      C1376   1.357       .  D
C1376      C2008   1.550       .  S
C1381      C1382   1.548       .  S
C1381      C1387   1.540       .  S
C1381      C1385   1.529       .  S
C1382      H1389   1.085       .  S
C1382      C1383   1.366       .  D
C1383      C1509   1.479       .  S
C1383      C1384   1.528       .  S
C1384      C1388   1.558       .  S
C1384      C1386   1.582       .  S
C1384      H1390   1.110       .  S
C1385      H1391   1.085       .  S
C1385      C1386   1.387       .  D
C1386      C1459   1.479       .  S
C1387      H1392   1.064       .  S
C1387      C1388   1.357       .  D
C1388      C2020   1.554       .  S
C1393      C1394   1.545       .  S
C1393      C1399   1.544       .  S
C1393      C1397   1.530       .  S
C1393      C1405   1.595       .  S
C1394      H1401   1.085       .  S
C1394      C1395   1.364       .  D
C1395      C1396   1.530       .  S
C1396      C1400   1.559   1_545  S
C1396      C1398   1.582       .  S
C1396      H1402   1.110       .  S
C1397      H1403   1.085       .  S
C1397      C1398   1.387       .  D
C1399      H1404   1.081   1_545  S
C1399      C1400   1.358   1_545  D
C1400      C1984   1.551       .  S
C1405      C1406   1.547       .  S
C1405      C1411   1.541       .  S
C1405      C1409   1.530       .  S
C1406      H1413   1.085       .  S
C1406      C1407   1.366       .  D
C1407      C1444   1.481       .  S
C1407      C1408   1.531       .  S
C1408      C1412   1.558   1_545  S
C1408      C1410   1.584       .  S
C1408      H1414   1.110       .  S
C1409      H1415   1.085       .  S
C1409      C1410   1.388       .  D
C1410      C1498   1.484       .  S
C1411      H1416   1.064   1_545  S
C1411      C1412   1.358   1_545  D
C1412      C1996   1.554       .  S
O1417      C1420   1.269       .  A
O1417     Cd1422   2.489       .  S
C1418      O1427   1.266       .  A
C1418      O1423   1.265       .  A
O1419      C1425   1.263       .  A
O1419     Cd1422   2.455       .  S
C1420      O1428   1.265       .  A
C1420      C1446   1.475       .  S
C1421      O1426   1.265       .  A
C1421      O1424   1.264       .  A
C1421      C1764   1.462       .  S
Cd1422     O1429   2.416       .  S
Cd1422     O1428   2.477       .  S
Cd1422     O1427   2.480       .  S
Cd1422     O1423   2.452       .  S
Cd1422     O1426   2.463       .  S
Cd1422     O1424   2.459       .  S
C1425      O1429   1.264       .  A
C1425      C1438   1.454       .  S
O1430      C1433   1.264       .  A
O1430     Cd1435   2.499       .  S
C1431      O1440   1.261       .  A
C1431      O1436   1.269       .  A
C1431      C1496   1.462       .  S
O1432      C1438   1.268       .  A
O1432     Cd1435   2.477       .  S
C1433      O1441   1.267       .  A
C1434      O1439   1.264       .  A
C1434      O1437   1.264       .  A
C1434      C1790   1.466       .  S
Cd1435     O1442   2.410       .  S
Cd1435     O1441   2.500       .  S
Cd1435     O1440   2.441       .  S
Cd1435     O1436   2.475       .  S
Cd1435     O1439   2.483       .  S
Cd1435     O1437   2.451       .  S
C1438      O1442   1.261       .  A
O1443      C1446   1.269       .  A
O1443     Cd1448   2.498       .  S
C1444      O1453   1.267       .  A
C1444      O1449   1.264       .  A
O1445      C2059   1.265   1_545  A
O1445     Cd1448   2.477       .  S
C1446      O1454   1.265       .  A
C1447      O1452   1.266       .  A
C1447      O1450   1.264       .  A
C1447      C1803   1.469       .  S
Cd1448     O1455   2.394       .  S
Cd1448     O1454   2.474       .  S
Cd1448     O1453   2.499       .  S
Cd1448     O1449   2.456       .  S
Cd1448     O1452   2.495       .  S
Cd1448     O1450   2.458       .  S
C1451      O2053   1.265       .  A
C1451      O2063   1.263       .  A
C1451      C1464   1.454       .  S
O1455      C2059   1.263   1_545  A
O1456      C1459   1.263       .  A
O1456     Cd1461   2.486       .  S
C1457      O1466   1.261       .  A
C1457      O1462   1.269       .  A
C1457      C1483   1.456       .  S
O1458      C1464   1.268       .  A
O1458     Cd1461   2.492       .  S
C1459      O1467   1.266       .  A
C1460      O1465   1.264       .  A
C1460      O1463   1.264       .  A
C1460      C1738   1.463       .  S
Cd1461     O1468   2.383       .  S
Cd1461     O1467   2.474       .  S
Cd1461     O1466   2.429       .  S
Cd1461     O1462   2.458       .  S
Cd1461     O1465   2.450       .  S
Cd1461     O1463   2.470       .  S
C1464      O1468   1.260       .  A
O1469      C1472   1.269       .  A
O1469     Cd1474   2.484       .  S
C1470      O1479   1.266       .  A
C1470      O1475   1.265       .  A
O1471      C1477   1.264       .  A
O1471     Cd1474   2.460       .  S
C1472      O1480   1.265       .  A
C1472      C1511   1.474       .  S
C1473      O1478   1.265       .  A
C1473      O1476   1.264       .  A
C1473      C1777   1.465       .  S
Cd1474     O1481   2.416       .  S
Cd1474     O1480   2.473       .  S
Cd1474     O1479   2.489       .  S
Cd1474     O1475   2.461       .  S
Cd1474     O1478   2.453       .  S
Cd1474     O1476   2.478       .  S
C1477      O1481   1.264       .  A
C1477      C1490   1.454       .  S
O1482      C1485   1.263       .  A
O1482     Cd1487   2.498       .  S
C1483      O1492   1.260       .  A
C1483      O1488   1.269       .  A
O1484      C1490   1.269       .  A
O1484     Cd1487   2.480       .  S
C1485      O1493   1.267       .  A
C1486      O1491   1.264       .  A
C1486      O1489   1.264       .  A
C1486      C1751   1.464       .  S
Cd1487     O1494   2.405       .  S
Cd1487     O1493   2.496       .  S
Cd1487     O1492   2.425       .  S
Cd1487     O1488   2.462       .  S
Cd1487     O1491   2.474       .  S
Cd1487     O1489   2.459       .  S
C1490      O1494   1.260       .  A
O1495      C1498   1.263       .  A
O1495     Cd1500   2.500       .  S
C1496      O1505   1.262       .  A
C1496      O1501   1.268       .  A
O1497      C2111   1.268       .  A
O1497     Cd1500   2.498       .  S
C1498      O1506   1.267       .  A
C1499      O1504   1.264       .  A
C1499      O1502   1.263       .  A
C1499      C1820   1.465       .  S
Cd1500     O1507   2.402       .  S
Cd1500     O1506   2.483       .  S
Cd1500     O1505   2.447       .  S
Cd1500     O1501   2.465       .  S
Cd1500     O1504   2.477       .  S
Cd1500     O1502   2.463       .  S
C1503      O2105   1.268       .  A
C1503      O2115   1.260       .  A
C1503      C1516   1.458       .  S
O1507      C2111   1.261       .  A
O1508      C1511   1.269       .  A
O1508     Cd1513   2.496       .  S
C1509      O1518   1.266       .  A
C1509      O1514   1.265       .  A
O1510      C1516   1.264       .  A
O1510     Cd1513   2.477       .  S
C1511      O1519   1.264       .  A
C1512      O1517   1.265       .  A
C1512      O1515   1.265       .  A
C1512      C1725   1.471       .  S
Cd1513     O1520   2.413       .  S
Cd1513     O1519   2.473       .  S
Cd1513     O1518   2.493       .  S
Cd1513     O1514   2.453       .  S
Cd1513     O1517   2.474       .  S
Cd1513     O1515   2.486       .  S
C1516      O1520   1.264       .  A
O1521      C1524   1.263       .  A
O1521     Cd1526   2.477       .  S
C1522      O1531   1.260       .  A
C1522      O1527   1.268       .  A
C1522      C1600   1.459       .  S
O1523      C1529   1.267       .  A
O1523     Cd1526   2.471       .  S
C1524      O1532   1.267       .  A
C1524      C1630   1.480       .  S
C1525      O1530   1.262       .  A
C1525      O1528   1.265       .  A
Cd1526     O1533   2.409       .  S
Cd1526     O1532   2.482       .  S
Cd1526     O1531   2.436       .  S
Cd1526     O1527   2.471       .  S
Cd1526     O1530   2.452       .  S
Cd1526     O1528   2.467       .  S
C1529      O1533   1.262       .  A
C1529      C1538   1.455       .  S
O1534      C1537   1.265       .  A
O1534     Cd1539   2.454       .  S
C1535      O1544   1.265       .  A
C1535      O1540   1.269       .  A
C1535      C1587   1.467       .  S
O1536      C1542   1.267       .  A
O1536     Cd1539   2.488       .  S
C1537      O1545   1.267       .  A
C1537      C1651   1.475       .  S
C1538      O1543   1.265       .  A
C1538      O1541   1.264       .  A
Cd1539     O1546   2.457       .  S
Cd1539     O1545   2.469       .  S
Cd1539     O1544   2.454       .  S
Cd1539     O1540   2.468       .  S
Cd1539     O1543   2.461       .  S
Cd1539     O1541   2.411       .  S
C1542      O1546   1.263       .  A
O1547      C1550   1.269       .  A
O1547     Cd1552   2.472       .  S
C1548      O1557   1.266       .  A
C1548      O1553   1.265       .  A
C1548      C1627   1.472       .  S
O1549      C1555   1.265       .  A
O1549     Cd1552   2.466       .  S
C1550      O1558   1.264       .  A
C1550      C1615   1.464       .  S
C1551      O1556   1.266       .  A
C1551      O1554   1.263       .  A
Cd1552     O1559   2.412       .  S
Cd1552     O1558   2.444       .  S
Cd1552     O1557   2.459       .  S
Cd1552     O1553   2.447       .  S
Cd1552     O1556   2.479       .  S
Cd1552     O1554   2.452       .  S
C1555      O1559   1.263       .  A
C1555      C1568   1.455       .  S
O1560      C1563   1.263       .  A
O1560     Cd1565   2.485       .  S
C1561      O1570   1.262       .  A
C1561      O1566   1.267       .  A
C1561      C1576   1.463       .  S
O1562      C1568   1.267       .  A
O1562     Cd1565   2.473       .  S
C1563      O1571   1.268       .  A
C1563      C1654   1.484       .  S
C1564      O1569   1.262       .  A
C1564      O1567   1.265       .  A
Cd1565     O1572   2.409       .  S
Cd1565     O1571   2.497       .  S
Cd1565     O1570   2.460       .  S
Cd1565     O1566   2.466       .  S
Cd1565     O1569   2.457       .  S
Cd1565     O1567   2.485       .  S
C1568      O1572   1.263       .  A
O1573      C1576   1.270       .  A
O1573     Cd1578   2.479       .  S
C1574      O1583   1.268       .  A
C1574      O1579   1.265       .  A
C1574      C1678   1.489       .  S
O1575      C1581   1.264       .  A
O1575     Cd1578   2.479       .  S
C1576      O1584   1.263       .  A
C1577      O1582   1.266       .  A
C1577      O1580   1.262       .  A
Cd1578     O1585   2.497       .  S
Cd1578     O1584   2.435       .  S
Cd1578     O1583   2.496       .  S
Cd1578     O1579   2.501       .  S
Cd1578     O1582   2.444       .  S
Cd1578     O1580   2.402       .  S
C1581      O1585   1.266       .  A
O1586      C1589   1.264       .  A
O1586     Cd1591   2.509       .  S
C1587      O1596   1.264       .  A
C1587      O1592   1.269       .  A
O1588      C1594   1.263       .  A
O1588     Cd1591   2.450       .  S
C1589      O1597   1.265       .  A
C1589      C1699   1.479       .  S
C1590      O1595   1.264       .  A
C1590      O1593   1.264       .  A
Cd1591     O1598   2.470       .  S
Cd1591     O1597   2.434       .  S
Cd1591     O1596   2.454       .  S
Cd1591     O1592   2.477       .  S
Cd1591     O1595   2.435       .  S
Cd1591     O1593   2.404       .  S
C1594      O1598   1.265       .  A
O1599      C1602   1.265       .  A
O1599     Cd1604   2.473       .  S
C1600      O1609   1.262       .  A
C1600      O1605   1.269       .  A
O1601      C1607   1.267   1_655  A
O1601     Cd1604   2.490       .  S
C1602      O1610   1.267       .  A
C1602      C1702   1.482       .  S
C1603      O1608   1.266       .  A
C1603      O1606   1.263       .  A
Cd1604     O1611   2.418       .  S
Cd1604     O1610   2.500       .  S
Cd1604     O1609   2.440       .  S
Cd1604     O1605   2.458       .  S
Cd1604     O1608   2.494       .  S
Cd1604     O1606   2.450       .  S
C1607      O1611   1.260   1_455  A
O1612      C1615   1.267       .  A
O1612     Cd1617   2.463       .  S
C1613      O1622   1.266       .  A
C1613      O1618   1.264       .  A
C1613      C1675   1.471       .  S
O1614      C1620   1.265       .  A
O1614     Cd1617   2.482       .  S
C1615      O1623   1.263       .  A
C1616      O1621   1.265       .  A
C1616      O1619   1.262       .  A
Cd1617     O1624   2.422       .  S
Cd1617     O1623   2.459       .  S
Cd1617     O1622   2.450       .  S
Cd1617     O1618   2.460       .  S
Cd1617     O1621   2.470       .  S
Cd1617     O1619   2.447       .  S
C1620      O1624   1.264       .  A
C1625      C1626   1.541       .  S
C1625      C1631   1.543       .  S
C1625      C1637   1.594   1_556  S
C1626      H1633   1.085       .  S
C1626      C1627   1.361       .  D
C1627      C1628   1.527       .  S
C1628      C1632   1.555       .  S
C1628      H1634   1.110       .  S
C1629      H1635   1.085       .  S
C1629      C1630   1.390       .  D
C1631      H1636   1.064       .  S
C1631      C1632   1.359       .  D
C1632      C1656   1.550       .  S
C1637      C1643   1.543       .  S
C1637      C1641   1.534       .  S
C1638      H1645   1.085       .  S
C1638      C1639   1.363       .  D
C1639      C1748   1.473       .  S
C1640      C1644   1.556       .  S
C1640      C1642   1.581       .  S
C1640      H1646   1.110       .  S
C1641      H1647   1.085       .  S
C1641      C1642   1.388       .  D
C1642      C1776   1.485       .  S
C1643      H1648   1.081       .  S
C1643      C1644   1.357       .  D
C1644      C1668   1.549       .  S
C1649      C1655   1.540       .  S
C1649      C1653   1.534       .  S
C1649      C1661   1.593   1_556  S
C1650      H1657   1.085       .  S
C1650      C1651   1.362       .  D
C1652      C1656   1.557       .  S
C1652      C1654   1.582       .  S
C1652      H1658   1.110       .  S
C1653      H1659   1.085       .  S
C1653      C1654   1.389       .  D
C1655      H1660   1.064       .  S
C1655      C1656   1.357       .  D
C1661      C1662   1.541       .  S
C1661      C1667   1.545       .  S
C1662      H1669   1.085       .  S
C1662      C1663   1.363       .  D
C1663      C1787   1.475       .  S
C1663      C1664   1.530       .  S
C1664      C1668   1.556       .  S
C1664      H1670   1.110       .  S
C1665      H1671   1.085       .  S
C1665      C1666   1.387       .  D
C1666      C1763   1.484       .  S
C1667      H1672   1.082       .  S
C1667      C1668   1.358       .  D
C1673      C1674   1.528       .  S
C1673      C1679   1.547       .  S
C1673      C1677   1.551       .  S
C1673      C1685   1.600       .  S
C1674      H1681   1.085       .  S
C1674      C1675   1.399       .  D
C1675      C1676   1.589       .  S
C1676      C1680   1.570       .  S
C1676      C1678   1.528       .  S
C1676      H1682   1.110       .  S
C1677      H1683   1.086       .  S
C1677      C1678   1.356       .  D
C1679      H1684   1.086       .  S
C1679      C1680   1.351       .  D
C1685      C1686   1.538       .  S
C1685      C1691   1.528       .  S
C1685      C1689   1.527       .  S
C1686      H1693   1.085       .  S
C1686      C1687   1.391       .  D
C1687      C1815   1.476       .  S
C1687      C1688   1.568       .  S
C1688      C1692   1.560       .  S
C1688      C1690   1.558       .  S
C1688      H1694   1.110       .  S
C1689      H1695   1.086       .  S
C1689      C1690   1.365       .  D
C1690      C1724   1.488       .  S
C1691      H1696   1.072       .  S
C1691      C1692   1.358       .  D
C1697      C1698   1.522       .  S
C1697      C1703   1.529       .  S
C1697      C1701   1.549       .  S
C1697      C1709   1.612       .  S
C1698      H1705   1.086       .  S
C1698      C1699   1.366       .  D
C1699      C1700   1.551       .  S
C1700      C1704   1.555       .  S
C1700      C1702   1.567       .  S
C1700      H1706   1.110       .  S
C1701      H1707   1.085       .  S
C1701      C1702   1.393       .  D
C1703      H1708   1.073       .  S
C1703      C1704   1.361       .  D
C1709      C1710   1.543       .  S
C1709      C1715   1.545       .  S
C1709      C1713   1.539       .  S
C1710      H1717   1.085       .  S
C1710      C1711   1.356       .  D
C1711      C1735   1.483       .  S
C1711      C1712   1.526       .  S
C1712      C1716   1.566       .  S
C1712      C1714   1.591       .  S
C1712      H1718   1.110       .  S
C1713      H1719   1.085       .  S
C1713      C1714   1.403       .  D
C1714      C1802   1.482       .  S
C1715      H1720   1.086       .  S
C1715      C1716   1.355       .  D
O1721      C1724   1.264       .  A
O1721     Cd1726   2.518       .  S
C1722      O1731   1.262       .  A
C1722      O1727   1.270       .  A
C1722      C1774   1.461       .  S
O1723      C1729   1.266       .  A
O1723     Cd1726   2.448       .  S
C1724      O1732   1.268       .  A
C1725      O1730   1.264       .  A
C1725      O1728   1.266       .  A
Cd1726     O1733   2.387       .  S
Cd1726     O1732   2.471       .  S
Cd1726     O1731   2.423       .  S
Cd1726     O1727   2.473       .  S
Cd1726     O1730   2.472       .  S
Cd1726     O1728   2.487       .  S
C1729      O1733   1.261       .  A
O1734      C1737   1.269       .  A
O1734     Cd1739   2.480       .  S
C1735      O1744   1.265       .  A
C1735      O1740   1.264       .  A
O1736      C1742   1.264       .  A
O1736     Cd1739   2.439       .  S
C1737      O1745   1.264       .  A
C1737      C1750   1.469       .  S
C1738      O1743   1.262       .  A
C1738      O1741   1.265       .  A
Cd1739     O1746   2.393       .  S
Cd1739     O1745   2.460       .  S
Cd1739     O1744   2.467       .  S
Cd1739     O1740   2.505       .  S
Cd1739     O1743   2.447       .  S
Cd1739     O1741   2.481       .  S
C1742      O1746   1.264       .  A
O1747      C1750   1.269       .  A
O1747     Cd1752   2.475       .  S
C1748      O1757   1.265       .  A
C1748      O1753   1.265       .  A
O1749      C1755   1.264       .  A
O1749     Cd1752   2.460       .  S
C1750      O1758   1.265       .  A
C1751      O1756   1.266       .  A
C1751      O1754   1.263       .  A
Cd1752     O1759   2.410       .  S
Cd1752     O1758   2.462       .  S
Cd1752     O1757   2.466       .  S
Cd1752     O1753   2.452       .  S
Cd1752     O1756   2.471       .  S
Cd1752     O1754   2.457       .  S
C1755      O1759   1.264       .  A
C1755      C1768   1.453       .  S
O1760      C1763   1.263       .  A
O1760     Cd1765   2.488       .  S
C1761      O1770   1.261       .  A
C1761      O1766   1.268       .  A
C1761      C1800   1.459       .  S
O1762      C1768   1.267       .  A
O1762     Cd1765   2.471       .  S
C1763      O1771   1.268       .  A
C1764      O1769   1.263       .  A
C1764      O1767   1.265       .  A
Cd1765     O1772   2.401       .  S
Cd1765     O1771   2.488       .  S
Cd1765     O1770   2.438       .  S
Cd1765     O1766   2.465       .  S
Cd1765     O1769   2.459       .  S
Cd1765     O1767   2.465       .  S
C1768      O1772   1.262       .  A
O1773      C1776   1.263       .  A
O1773     Cd1778   2.488       .  S
C1774      O1783   1.262       .  A
C1774      O1779   1.267       .  A
O1775      C1781   1.267       .  A
O1775     Cd1778   2.471       .  S
C1776      O1784   1.268       .  A
C1777      O1782   1.262       .  A
C1777      O1780   1.265       .  A
Cd1778     O1785   2.407       .  S
Cd1778     O1784   2.495       .  S
Cd1778     O1783   2.463       .  S
Cd1778     O1779   2.458       .  S
Cd1778     O1782   2.451       .  S
Cd1778     O1780   2.488       .  S
C1781      O1785   1.263       .  A
C1781      C1794   1.455       .  S
O1786      C1789   1.270       .  A
O1786     Cd1791   2.474       .  S
C1787      O1796   1.266       .  A
C1787      O1792   1.264       .  A
O1788      C1794   1.265       .  A
O1788     Cd1791   2.468       .  S
C1789      O1797   1.265       .  A
C1789      C1813   1.469       .  S
C1790      O1795   1.267       .  A
C1790      O1793   1.263       .  A
Cd1791     O1798   2.404       .  S
Cd1791     O1797   2.456       .  S
Cd1791     O1796   2.476       .  S
Cd1791     O1792   2.454       .  S
Cd1791     O1795   2.490       .  S
Cd1791     O1793   2.451       .  S
C1794      O1798   1.262       .  A
O1799      C1802   1.264       .  A
O1799     Cd1804   2.477       .  S
C1800      O1809   1.262       .  A
C1800      O1805   1.268       .  A
O1801      C1807   1.268   1_655  A
O1801     Cd1804   2.501       .  S
C1802      O1810   1.268       .  A
C1803      O1808   1.266       .  A
C1803      O1806   1.263       .  A
Cd1804     O1811   2.412       .  S
Cd1804     O1810   2.494       .  S
Cd1804     O1809   2.442       .  S
Cd1804     O1805   2.459       .  S
Cd1804     O1808   2.501       .  S
Cd1804     O1806   2.453       .  S
C1807      O1811   1.261   1_455  A
O1812      C1815   1.264       .  A
O1812     Cd1817   2.468       .  S
C1813      O1822   1.262       .  A
C1813      O1818   1.268       .  A
O1814      C1820   1.264       .  A
O1814     Cd1817   2.472       .  S
C1815      O1823   1.265       .  A
C1816      O1821   1.265       .  A
C1816      O1819   1.263       .  A
Cd1817     O1824   2.461       .  S
Cd1817     O1823   2.473       .  S
Cd1817     O1822   2.464       .  S
Cd1817     O1818   2.489       .  S
Cd1817     O1821   2.493       .  S
Cd1817     O1819   2.422       .  S
C1820      O1824   1.263       .  A
O1825      C1828   1.264       .  A
O1825     Cd1830   2.489       .  S
C1826      O1835   1.261       .  A
C1826      O1831   1.268       .  A
C1826      C1878   1.459       .  S
O1827      C1833   1.268       .  A
O1827     Cd1830   2.463       .  S
C1828      O1836   1.267       .  A
C1828      C1934   1.483       .  S
C1829      O1834   1.264       .  A
C1829      O1832   1.264       .  A
C1829      C2159   1.464       .  S
Cd1830     O1837   2.408       .  S
Cd1830     O1836   2.483       .  S
Cd1830     O1835   2.442       .  S
Cd1830     O1831   2.462       .  S
Cd1830     O1834   2.476       .  S
Cd1830     O1832   2.455       .  S
C1833      O1837   1.261       .  A
C1833      C1846   1.452       .  S
O1838      C1841   1.268       .  A
O1838     Cd1843   2.484       .  S
C1839      O1848   1.266       .  A
C1839      O1844   1.266       .  A
C1839      C1955   1.478       .  S
O1840      C1846   1.262       .  A
O1840     Cd1843   2.443       .  S
C1841      O1849   1.265       .  A
C1841      C1867   1.473       .  S
C1842      O1847   1.265       .  A
C1842      O1845   1.263       .  A
C1842      C2133   1.462       .  S
Cd1843     O1850   2.420       .  S
Cd1843     O1849   2.480       .  S
Cd1843     O1848   2.471       .  S
Cd1843     O1844   2.466       .  S
Cd1843     O1847   2.461       .  S
Cd1843     O1845   2.457       .  S
C1846      O1850   1.265       .  A
O1851      C1854   1.269       .  A
O1851     Cd1856   2.460       .  S
C1852      O1861   1.267       .  A
C1852      O1857   1.263       .  A
C1852      C2006   1.482       .  S
O1853      C1859   1.264       .  A
O1853     Cd1856   2.453       .  S
C1854      O1862   1.261       .  A
C1854      C1917   1.459       .  S
C1855      C1872   1.454   1_545  S
Cd1856     O1863   2.461       .  S
Cd1856     O1862   2.437       .  S
Cd1856     O1861   2.481       .  S
Cd1856     O1857   2.484       .  S
Cd1856     O1860   2.477       .  S
Cd1856     O1858   2.402       .  S
C1859      O1863   1.264       .  A
C1859      C2202   1.461       .  S
O1864      C1867   1.269       .  A
O1864     Cd1869   2.490       .  S
C1865      O1874   1.266       .  A
C1865      O1870   1.264       .  A
C1865      C1979   1.480       .  S
O1866      C1872   1.264       .  A
O1866     Cd1869   2.460       .  S
C1867      O1875   1.265       .  A
C1868      O1873   1.265       .  A
C1868      O1871   1.264       .  A
C1868      C2211   1.469       .  S
Cd1869     O1876   2.409       .  S
Cd1869     O1875   2.469       .  S
Cd1869     O1874   2.492       .  S
Cd1869     O1870   2.462       .  S
Cd1869     O1873   2.499       .  S
Cd1869     O1871   2.460       .  S
C1872      O1876   1.264       .  A
O1877      C1880   1.264       .  A
O1877     Cd1882   2.491       .  S
C1878      O1887   1.261       .  A
C1878      O1883   1.268       .  A
O1879      C1885   1.267       .  A
O1879     Cd1882   2.479       .  S
C1880      O1888   1.267       .  A
C1880      C1982   1.482       .  S
C1881      O1886   1.263       .  A
C1881      O1884   1.263       .  A
C1881      C2224   1.461       .  S
Cd1882     O1889   2.405       .  S
Cd1882     O1888   2.472       .  S
Cd1882     O1887   2.441       .  S
Cd1882     O1883   2.466       .  S
Cd1882     O1886   2.470       .  S
Cd1882     O1884   2.455       .  S
C1885      O1889   1.261       .  A
C1885      C1898   1.455       .  S
O1890      C1893   1.268       .  A
O1890     Cd1895   2.489       .  S
C1891      O1900   1.267       .  A
C1891      O1896   1.265       .  A
C1891      C2003   1.479       .  S
O1892     Cd1895   2.464       .  S
C1893      O1901   1.265       .  A
C1893      C1906   1.474       .  S
C1894      O1899   1.265       .  A
C1894      O1897   1.264       .  A
C1894      C2189   1.474       .  S
Cd1895     O1902   2.419       .  S
Cd1895     O1901   2.479       .  S
Cd1895     O1900   2.483       .  S
Cd1895     O1896   2.462       .  S
Cd1895     O1899   2.487       .  S
Cd1895     O1897   2.490       .  S
O1903      C1906   1.269       .  A
O1903     Cd1908   2.490       .  S
C1904      O1913   1.266       .  A
C1904      O1909   1.266       .  A
C1904      C1931   1.477       .  S
O1905      C1911   1.262       .  A
O1905     Cd1908   2.450       .  S
C1906      O1914   1.265       .  A
C1907      O1912   1.265       .  A
C1907      O1910   1.264       .  A
C1907      C2172   1.466       .  S
Cd1908     O1915   2.435       .  S
Cd1908     O1914   2.472       .  S
Cd1908     O1913   2.477       .  S
Cd1908     O1909   2.454       .  S
Cd1908     O1912   2.465       .  S
Cd1908     O1910   2.477       .  S
C1911      O1915   1.265       .  A
C1911      C1924   1.455       .  S
O1916      C1919   1.263       .  A
O1916     Cd1921   2.493       .  S
C1917      O1926   1.260       .  A
C1917      O1922   1.268       .  A
O1918      C1924   1.268       .  A
O1918     Cd1921   2.466       .  S
C1919      O1927   1.267       .  A
C1919      C1958   1.483       .  S
C1920      O1925   1.264       .  A
C1920      O1923   1.264       .  A
C1920      C2150   1.469       .  S
Cd1921     O1928   2.418       .  S
Cd1921     O1927   2.492       .  S
Cd1921     O1926   2.436       .  S
Cd1921     O1922   2.472       .  S
Cd1921     O1925   2.489       .  S
Cd1921     O1923   2.468       .  S
C1924      O1928   1.261       .  A
C1929      C1935   1.545       .  S
C1929      C1933   1.536       .  S
C1929      C1941   1.605   1_556  S
C1930      H1937   1.085       .  S
C1930      C1931   1.366       .  D
C1932      C1936   1.555       .  S
C1932      C1934   1.580       .  S
C1932      H1938   1.110       .  S
C1933      H1939   1.085       .  S
C1933      C1934   1.390       .  D
C1935      H1940   1.082       .  S
C1935      C1936   1.357       .  D
C1936      C1960   1.550       .  S
C1941      C1942   1.547       .  S
C1941      C1947   1.540       .  S
C1942      H1949   1.085       .  S
C1942      C1943   1.366       .  D
C1943      C2078   1.480       .  S
C1943      C1944   1.529       .  S
C1944      C1948   1.554       .  S
C1944      H1950   1.110       .  S
C1945      H1951   1.085       .  S
C1945      C1946   1.392       .  D
C1946      C2041   1.487       .  S
C1947      H1952   1.063   1_564  S
C1947      C1948   1.356       .  D
C1948      C1972   1.550       .  S
C1953      C1954   1.543       .  S
C1953      C1959   1.544       .  S
C1953      C1965   1.602   1_556  S
C1954      H1961   1.085       .  S
C1954      C1955   1.365       .  D
C1955      C1956   1.529       .  S
C1956      C1960   1.557       .  S
C1956      H1962   1.110       .  S
C1957      H1963   1.085       .  S
C1957      C1958   1.389       .  D
C1959      H1964   1.082   1_565  S
C1959      C1960   1.356       .  D
C1965      C1971   1.540       .  S
C1965      C1969   1.535       .  S
C1966      H1973   1.085       .  S
C1966      C1967   1.363       .  D
C1967      C2026   1.476       .  S
C1968      C1972   1.554       .  S
C1968      C1970   1.582       .  S
C1968      H1974   1.110       .  S
C1969      H1975   1.085       .  S
C1969      C1970   1.391       .  D
C1970      C2093   1.485       .  S
C1971      H1976   1.063   1_554  S
C1971      C1972   1.356       .  D
C1977      C1978   1.545       .  S
C1977      C1983   1.544       .  S
C1977      C1981   1.529       .  S
C1977      C1989   1.593       .  S
C1978      H1985   1.085       .  S
C1978      C1979   1.364       .  D
C1979      C1980   1.531       .  S
C1980      C1984   1.560       .  S
C1980      C1982   1.583       .  S
C1980      H1986   1.110       .  S
C1981      H1987   1.085       .  S
C1981      C1982   1.387       .  D
C1983      H1988   1.081       .  S
C1983      C1984   1.357       .  D
C1989      C1990   1.548       .  S
C1989      C1995   1.540       .  S
C1989      C1993   1.529       .  S
C1990      H1997   1.085       .  S
C1990      C1991   1.366       .  D
C1991      C2117   1.479       .  S
C1991      C1992   1.529       .  S
C1992      C1996   1.558       .  S
C1992      C1994   1.582       .  S
C1992      H1998   1.110       .  S
C1993      H1999   1.085       .  S
C1993      C1994   1.387       .  D
C1994      C2067   1.479       .  S
C1995      H2000   1.064       .  S
C1995      C1996   1.357       .  D
C2001      C2002   1.544       .  S
C2001      C2007   1.544       .  S
C2001      C2005   1.530       .  S
C2001      C2013   1.595       .  S
C2002      H2009   1.085       .  S
C2002      C2003   1.364       .  D
C2003      C2004   1.530       .  S
C2004      C2008   1.558       .  S
C2004      C2006   1.582       .  S
C2004      H2010   1.110       .  S
C2005      H2011   1.085       .  S
C2005      C2006   1.388       .  D
C2007      H2012   1.081       .  S
C2007      C2008   1.358       .  D
C2013      C2014   1.547       .  S
C2013      C2019   1.541       .  S
C2013      C2017   1.530       .  S
C2014      H2021   1.085       .  S
C2014      C2015   1.366       .  D
C2015      C2052   1.480       .  S
C2015      C2016   1.531       .  S
C2016      C2020   1.558       .  S
C2016      C2018   1.584       .  S
C2016      H2022   1.110       .  S
C2017      H2023   1.085       .  S
C2017      C2018   1.388       .  D
C2018      C2106   1.484       .  S
C2019      H2024   1.064       .  S
C2019      C2020   1.358       .  D
O2025      C2028   1.269       .  A
O2025     Cd2030   2.492       .  S
C2026      O2035   1.266       .  A
C2026      O2031   1.265       .  A
O2027      C2033   1.264       .  A
O2027     Cd2030   2.457       .  S
C2028      O2036   1.265       .  A
C2028      C2054   1.475       .  S
C2029      O2034   1.265       .  A
C2029      O2032   1.264       .  A
C2029      C2372   1.463       .  S
Cd2030     O2037   2.416       .  S
Cd2030     O2036   2.475       .  S
Cd2030     O2035   2.479       .  S
Cd2030     O2031   2.455       .  S
Cd2030     O2034   2.464       .  S
Cd2030     O2032   2.460       .  S
C2033      O2037   1.265       .  A
C2033      C2046   1.454       .  S
O2038      C2041   1.264       .  A
O2038     Cd2043   2.501       .  S
C2039      O2048   1.261       .  A
C2039      O2044   1.269       .  A
C2039      C2104   1.462       .  S
O2040      C2046   1.268       .  A
O2040     Cd2043   2.479       .  S
C2041      O2049   1.267       .  A
C2042      O2047   1.264       .  A
C2042      O2045   1.264       .  A
C2042      C2398   1.466       .  S
Cd2043     O2050   2.410       .  S
Cd2043     O2049   2.501       .  S
Cd2043     O2048   2.440       .  S
Cd2043     O2044   2.478       .  S
Cd2043     O2047   2.484       .  S
Cd2043     O2045   2.454       .  S
C2046      O2050   1.261       .  A
O2051      C2054   1.269       .  A
O2051     Cd2056   2.496       .  S
C2052      O2061   1.267       .  A
C2052      O2057   1.264       .  A
O2053     Cd2056   2.477       .  S
C2054      O2062   1.265       .  A
C2055      O2060   1.266       .  A
C2055      O2058   1.264       .  A
C2055      C2411   1.469       .  S
Cd2056     O2063   2.393       .  S
Cd2056     O2062   2.477       .  S
Cd2056     O2061   2.499       .  S
Cd2056     O2057   2.457       .  S
Cd2056     O2060   2.495       .  S
Cd2056     O2058   2.457       .  S
C2059      C2072   1.454       .  S
O2064      C2067   1.263       .  A
O2064     Cd2069   2.487       .  S
C2065      O2074   1.261       .  A
C2065      O2070   1.269       .  A
C2065      C2091   1.456       .  S
O2066      C2072   1.269       .  A
O2066     Cd2069   2.490       .  S
C2067      O2075   1.266       .  A
C2068      O2073   1.264       .  A
C2068      O2071   1.264       .  A
C2068      C2346   1.463       .  S
Cd2069     O2076   2.383       .  S
Cd2069     O2075   2.475       .  S
Cd2069     O2074   2.429       .  S
Cd2069     O2070   2.456       .  S
Cd2069     O2073   2.452       .  S
Cd2069     O2071   2.468       .  S
C2072      O2076   1.261       .  A
O2077      C2080   1.269       .  A
O2077     Cd2082   2.483       .  S
C2078      O2087   1.266       .  A
C2078      O2083   1.265       .  A
O2079      C2085   1.264       .  A
O2079     Cd2082   2.461       .  S
C2080      O2088   1.265       .  A
C2080      C2119   1.474       .  S
C2081      O2086   1.265       .  A
C2081      O2084   1.264       .  A
C2081      C2385   1.464       .  S
Cd2082     O2089   2.414       .  S
Cd2082     O2088   2.475       .  S
Cd2082     O2087   2.490       .  S
Cd2082     O2083   2.464       .  S
Cd2082     O2086   2.452       .  S
Cd2082     O2084   2.477       .  S
C2085      O2089   1.264       .  A
C2085      C2098   1.454       .  S
O2090      C2093   1.263       .  A
O2090     Cd2095   2.500       .  S
C2091      O2100   1.260       .  A
C2091      O2096   1.268       .  A
O2092      C2098   1.268       .  A
O2092     Cd2095   2.480       .  S
C2093      O2101   1.267       .  A
C2094      O2099   1.264       .  A
C2094      O2097   1.264       .  A
C2094      C2359   1.465       .  S
Cd2095     O2102   2.407       .  S
Cd2095     O2101   2.493       .  S
Cd2095     O2100   2.426       .  S
Cd2095     O2096   2.462       .  S
Cd2095     O2099   2.473       .  S
Cd2095     O2097   2.462       .  S
C2098      O2102   1.260       .  A
O2103      C2106   1.263       .  A
O2103     Cd2108   2.501       .  S
C2104      O2113   1.262       .  A
C2104      O2109   1.268       .  A
O2105     Cd2108   2.498       .  S
C2106      O2114   1.267       .  A
C2107      O2112   1.264       .  A
C2107      O2110   1.263       .  A
C2107      C2428   1.464       .  S
Cd2108     O2115   2.400       .  S
Cd2108     O2114   2.481       .  S
Cd2108     O2113   2.447       .  S
Cd2108     O2109   2.462       .  S
Cd2108     O2112   2.478       .  S
Cd2108     O2110   2.460       .  S
C2111      C2124   1.459   1_545  S
O2116      C2119   1.269       .  A
O2116     Cd2121   2.497       .  S
C2117      O2126   1.266       .  A
C2117      O2122   1.265       .  A
O2118      C2124   1.264       .  A
O2118     Cd2121   2.477       .  S
C2119      O2127   1.264       .  A
C2120      O2125   1.265       .  A
C2120      O2123   1.265       .  A
C2120      C2333   1.471       .  S
Cd2121     O2128   2.414       .  S
Cd2121     O2127   2.472       .  S
Cd2121     O2126   2.493       .  S
Cd2121     O2122   2.451       .  S
Cd2121     O2125   2.475       .  S
Cd2121     O2123   2.483       .  S
C2124      O2128   1.264       .  A
O2129      C2132   1.263       .  A
O2129     Cd2134   2.478       .  S
C2130      O2139   1.261       .  A
C2130      O2135   1.268       .  A
C2130      C2208   1.460       .  S
O2131      C2137   1.267       .  A
O2131     Cd2134   2.472       .  S
C2132      O2140   1.267       .  A
C2132      C2238   1.481       .  S
C2133      O2138   1.262       .  A
C2133      O2136   1.265       .  A
Cd2134     O2141   2.412       .  S
Cd2134     O2140   2.486       .  S
Cd2134     O2139   2.439       .  S
Cd2134     O2135   2.472       .  S
Cd2134     O2138   2.455       .  S
Cd2134     O2136   2.467       .  S
C2137      O2141   1.262       .  A
C2137      C2146   1.456       .  S
O2142      C2145   1.265       .  A
O2142     Cd2147   2.454       .  S
C2143      O2152   1.265       .  A
C2143      O2148   1.269       .  A
C2143      C2195   1.467       .  S
O2144      C2150   1.267       .  A
O2144     Cd2147   2.491       .  S
C2145      O2153   1.267       .  A
C2145      C2259   1.475       .  S
C2146      O2151   1.265       .  A
C2146      O2149   1.264       .  A
Cd2147     O2154   2.458       .  S
Cd2147     O2153   2.469       .  S
Cd2147     O2152   2.452       .  S
Cd2147     O2148   2.471       .  S
Cd2147     O2151   2.464       .  S
Cd2147     O2149   2.413       .  S
C2150      O2154   1.263       .  A
O2155      C2158   1.269       .  A
O2155     Cd2160   2.474       .  S
C2156      O2165   1.266       .  A
C2156      O2161   1.265       .  A
C2156      C2235   1.472       .  S
O2157      C2163   1.265       .  A
O2157     Cd2160   2.466       .  S
C2158      O2166   1.264       .  A
C2158      C2223   1.464       .  S
C2159      O2164   1.266       .  A
C2159      O2162   1.263       .  A
Cd2160     O2167   2.411       .  S
Cd2160     O2166   2.445       .  S
Cd2160     O2165   2.462       .  S
Cd2160     O2161   2.449       .  S
Cd2160     O2164   2.479       .  S
Cd2160     O2162   2.453       .  S
C2163      O2167   1.263       .  A
C2163      C2176   1.455       .  S
O2168      C2171   1.263       .  A
O2168     Cd2173   2.484       .  S
C2169      O2178   1.261       .  A
C2169      O2174   1.267       .  A
C2169      C2184   1.463       .  S
O2170      C2176   1.267       .  A
O2170     Cd2173   2.472       .  S
C2171      O2179   1.268       .  A
C2171      C2262   1.484       .  S
C2172      O2177   1.262       .  A
C2172      O2175   1.265       .  A
Cd2173     O2180   2.410       .  S
Cd2173     O2179   2.496       .  S
Cd2173     O2178   2.459       .  S
Cd2173     O2174   2.469       .  S
Cd2173     O2177   2.458       .  S
Cd2173     O2175   2.484       .  S
C2176      O2180   1.263       .  A
O2181      C2184   1.270       .  A
O2181     Cd2186   2.477       .  S
C2182      O2191   1.268       .  A
C2182      O2187   1.265       .  A
C2182      C2286   1.490       .  S
O2183      C2189   1.264       .  A
O2183     Cd2186   2.482       .  S
C2184      O2192   1.263       .  A
C2185      O2190   1.266       .  A
C2185      O2188   1.261       .  A
Cd2186     O2193   2.497       .  S
Cd2186     O2192   2.438       .  S
Cd2186     O2191   2.500       .  S
Cd2186     O2187   2.503       .  S
Cd2186     O2190   2.447       .  S
Cd2186     O2188   2.400       .  S
C2189      O2193   1.266       .  A
O2194      C2197   1.264       .  A
O2194     Cd2199   2.510       .  S
C2195      O2204   1.264       .  A
C2195      O2200   1.269       .  A
O2196      C2202   1.263       .  A
O2196     Cd2199   2.451       .  S
C2197      O2205   1.265       .  A
C2197      C2307   1.479       .  S
C2198      O2203   1.264       .  A
C2198      O2201   1.264       .  A
Cd2199     O2206   2.471       .  S
Cd2199     O2205   2.435       .  S
Cd2199     O2204   2.457       .  S
Cd2199     O2200   2.476       .  S
Cd2199     O2203   2.437       .  S
Cd2199     O2201   2.402       .  S
C2202      O2206   1.265       .  A
O2207      C2210   1.265       .  A
O2207     Cd2212   2.473       .  S
C2208      O2217   1.262       .  A
C2208      O2213   1.269       .  A
O2209      C2215   1.267   1_655  A
O2209     Cd2212   2.493       .  S
C2210      O2218   1.267       .  A
C2210      C2310   1.483       .  S
C2211      O2216   1.266       .  A
C2211      O2214   1.263       .  A
Cd2212     O2219   2.413       .  S
Cd2212     O2218   2.502       .  S
Cd2212     O2217   2.442       .  S
Cd2212     O2213   2.461       .  S
Cd2212     O2216   2.495       .  S
Cd2212     O2214   2.450       .  S
C2215      O2219   1.260   1_455  A
O2220      C2223   1.267       .  A
O2220     Cd2225   2.465       .  S
C2221      O2230   1.266       .  A
C2221      O2226   1.264       .  A
C2221      C2283   1.471       .  S
O2222      C2228   1.265       .  A
O2222     Cd2225   2.486       .  S
C2223      O2231   1.263       .  A
C2224      O2229   1.265       .  A
C2224      O2227   1.263       .  A
Cd2225     O2232   2.417       .  S
Cd2225     O2231   2.459       .  S
Cd2225     O2230   2.453       .  S
Cd2225     O2226   2.459       .  S
Cd2225     O2229   2.470       .  S
Cd2225     O2227   2.447       .  S
C2228      O2232   1.263       .  A
C2233      C2234   1.542       .  S
C2233      C2239   1.543       .  S
C2233      C2245   1.593   1_556  S
C2234      H2241   1.085       .  S
C2234      C2235   1.361       .  D
C2235      C2236   1.528       .  S
C2236      C2240   1.555       .  S
C2236      H2242   1.110       .  S
C2237      H2243   1.085       .  S
C2237      C2238   1.390       .  D
C2239      H2244   1.064       .  S
C2239      C2240   1.359       .  D
C2240      C2264   1.550       .  S
C2245      C2251   1.544       .  S
C2245      C2249   1.534       .  S
C2246      H2253   1.085       .  S
C2246      C2247   1.363       .  D
C2247      C2356   1.473       .  S
C2248      C2252   1.556       .  S
C2248      C2250   1.581       .  S
C2248      H2254   1.110       .  S
C2249      H2255   1.085       .  S
C2249      C2250   1.388       .  D
C2250      C2384   1.483       .  S
C2251      H2256   1.082       .  S
C2251      C2252   1.357       .  D
C2252      C2276   1.549       .  S
C2257      C2263   1.540       .  S
C2257      C2261   1.534       .  S
C2257      C2269   1.593   1_556  S
C2258      H2265   1.085       .  S
C2258      C2259   1.362       .  D
C2260      C2264   1.557       .  S
C2260      C2262   1.581       .  S
C2260      H2266   1.110       .  S
C2261      H2267   1.085       .  S
C2261      C2262   1.389       .  D
C2263      H2268   1.064       .  S
C2263      C2264   1.357       .  D
C2269      C2270   1.540       .  S
C2269      C2275   1.545       .  S
C2270      H2277   1.085       .  S
C2270      C2271   1.363       .  D
C2271      C2395   1.474       .  S
C2271      C2272   1.530       .  S
C2272      C2276   1.556       .  S
C2272      H2278   1.110       .  S
C2273      H2279   1.085       .  S
C2273      C2274   1.387       .  D
C2274      C2371   1.484       .  S
C2275      H2280   1.082       .  S
C2275      C2276   1.358       .  D
C2281      C2282   1.528       .  S
C2281      C2287   1.547       .  S
C2281      C2285   1.552       .  S
C2281      C2293   1.601       .  S
C2282      H2289   1.085       .  S
C2282      C2283   1.399       .  D
C2283      C2284   1.590       .  S
C2284      C2288   1.571       .  S
C2284      C2286   1.529       .  S
C2284      H2290   1.110       .  S
C2285      H2291   1.086       .  S
C2285      C2286   1.356       .  D
C2287      H2292   1.086       .  S
C2287      C2288   1.351       .  D
C2293      C2294   1.538       .  S
C2293      C2299   1.528       .  S
C2293      C2297   1.528       .  S
C2294      H2301   1.085       .  S
C2294      C2295   1.390       .  D
C2295      C2423   1.475       .  S
C2295      C2296   1.568       .  S
C2296      C2300   1.561       .  S
C2296      C2298   1.558       .  S
C2296      H2302   1.110       .  S
C2297      H2303   1.086       .  S
C2297      C2298   1.365       .  D
C2298      C2332   1.488       .  S
C2299      H2304   1.072       .  S
C2299      C2300   1.358       .  D
C2305      C2306   1.521       .  S
C2305      C2311   1.529       .  S
C2305      C2309   1.549       .  S
C2305      C2317   1.612       .  S
C2306      H2313   1.086       .  S
C2306      C2307   1.366       .  D
C2307      C2308   1.551       .  S
C2308      C2312   1.555       .  S
C2308      C2310   1.567       .  S
C2308      H2314   1.110       .  S
C2309      H2315   1.085       .  S
C2309      C2310   1.393       .  D
C2311      H2316   1.073       .  S
C2311      C2312   1.361       .  D
C2317      C2318   1.543       .  S
C2317      C2323   1.545       .  S
C2317      C2321   1.539       .  S
C2318      H2325   1.085       .  S
C2318      C2319   1.355       .  D
C2319      C2343   1.483       .  S
C2319      C2320   1.526       .  S
C2320      C2324   1.567       .  S
C2320      C2322   1.591       .  S
C2320      H2326   1.110       .  S
C2321      H2327   1.085       .  S
C2321      C2322   1.402       .  D
C2322      C2410   1.482       .  S
C2323      H2328   1.086       .  S
C2323      C2324   1.355       .  D
O2329      C2332   1.264       .  A
O2329     Cd2334   2.519       .  S
C2330      O2339   1.262       .  A
C2330      O2335   1.270       .  A
C2330      C2382   1.461       .  S
O2331      C2337   1.266       .  A
O2331     Cd2334   2.448       .  S
C2332      O2340   1.268       .  A
C2333      O2338   1.264       .  A
C2333      O2336   1.266       .  A
Cd2334     O2341   2.386       .  S
Cd2334     O2340   2.470       .  S
Cd2334     O2339   2.424       .  S
Cd2334     O2335   2.470       .  S
Cd2334     O2338   2.474       .  S
Cd2334     O2336   2.485       .  S
C2337      O2341   1.261       .  A
O2342      C2345   1.269       .  A
O2342     Cd2347   2.480       .  S
C2343      O2352   1.265       .  A
C2343      O2348   1.264       .  A
O2344      C2350   1.264       .  A
O2344     Cd2347   2.441       .  S
C2345      O2353   1.264       .  A
C2345      C2358   1.469       .  S
C2346      O2351   1.262       .  A
C2346      O2349   1.265       .  A
Cd2347     O2354   2.392       .  S
Cd2347     O2353   2.459       .  S
Cd2347     O2352   2.467       .  S
Cd2347     O2348   2.505       .  S
Cd2347     O2351   2.449       .  S
Cd2347     O2349   2.480       .  S
C2350      O2354   1.264       .  A
O2355      C2358   1.269       .  A
O2355     Cd2360   2.476       .  S
C2356      O2365   1.265       .  A
C2356      O2361   1.265       .  A
O2357      C2363   1.264       .  A
O2357     Cd2360   2.462       .  S
C2358      O2366   1.265       .  A
C2359      O2364   1.266       .  A
C2359      O2362   1.264       .  A
Cd2360     O2367   2.411       .  S
Cd2360     O2366   2.463       .  S
Cd2360     O2365   2.463       .  S
Cd2360     O2361   2.452       .  S
Cd2360     O2364   2.470       .  S
Cd2360     O2362   2.460       .  S
C2363      O2367   1.264       .  A
C2363      C2376   1.454       .  S
O2368      C2371   1.263       .  A
O2368     Cd2373   2.489       .  S
C2369      O2378   1.261       .  A
C2369      O2374   1.268       .  A
C2369      C2408   1.459       .  S
O2370      C2376   1.267       .  A
O2370     Cd2373   2.473       .  S
C2371      O2379   1.268       .  A
C2372      O2377   1.263       .  A
C2372      O2375   1.265       .  A
Cd2373     O2380   2.403       .  S
Cd2373     O2379   2.489       .  S
Cd2373     O2378   2.439       .  S
Cd2373     O2374   2.466       .  S
Cd2373     O2377   2.462       .  S
Cd2373     O2375   2.467       .  S
C2376      O2380   1.262       .  A
O2381      C2384   1.263       .  A
O2381     Cd2386   2.485       .  S
C2382      O2391   1.261       .  A
C2382      O2387   1.267       .  A
O2383      C2389   1.267       .  A
O2383     Cd2386   2.468       .  S
C2384      O2392   1.268       .  A
C2385      O2390   1.262       .  A
C2385      O2388   1.265       .  A
Cd2386     O2393   2.408       .  S
Cd2386     O2392   2.491       .  S
Cd2386     O2391   2.460       .  S
Cd2386     O2387   2.459       .  S
Cd2386     O2390   2.446       .  S
Cd2386     O2388   2.486       .  S
C2389      O2393   1.263       .  A
C2389      C2402   1.454       .  S
O2394      C2397   1.270       .  A
O2394     Cd2399   2.475       .  S
C2395      O2404   1.266       .  A
C2395      O2400   1.264       .  A
O2396      C2402   1.265       .  A
O2396     Cd2399   2.465       .  S
C2397      O2405   1.265       .  A
C2397      C2421   1.468       .  S
C2398      O2403   1.267       .  A
C2398      O2401   1.263       .  A
Cd2399     O2406   2.407       .  S
Cd2399     O2405   2.455       .  S
Cd2399     O2404   2.473       .  S
Cd2399     O2400   2.456       .  S
Cd2399     O2403   2.490       .  S
Cd2399     O2401   2.451       .  S
C2402      O2406   1.262       .  A
O2407      C2410   1.264       .  A
O2407     Cd2412   2.474       .  S
C2408      O2417   1.262       .  A
C2408      O2413   1.268       .  A
O2409      C2415   1.268       .  A
O2409     Cd2412   2.502       .  S
C2410      O2418   1.268       .  A
C2411      O2416   1.266       .  A
C2411      O2414   1.263       .  A
Cd2412     O2419   2.413       .  S
Cd2412     O2418   2.495       .  S
Cd2412     O2417   2.444       .  S
Cd2412     O2413   2.459       .  S
Cd2412     O2416   2.501       .  S
Cd2412     O2414   2.452       .  S
C2415      O2419   1.261       .  A
O2420      C2423   1.264       .  A
O2420     Cd2425   2.467       .  S
C2421      O2430   1.263       .  A
C2421      O2426   1.268       .  A
O2422      C2428   1.264       .  A
O2422     Cd2425   2.472       .  S
C2423      O2431   1.266       .  A
C2424      O2429   1.265       .  A
C2424      O2427   1.263       .  A
Cd2425     O2432   2.459       .  S
Cd2425     O2431   2.472       .  S
Cd2425     O2430   2.463       .  S
Cd2425     O2426   2.486       .  S
Cd2425     O2429   2.493       .  S
Cd2425     O2427   2.421       .  S
C2428      O2432   1.263       .  A
