geometry optimzed in LAMMPS
_audit_creation_date              2020-11-30 
_audit_creation_method            'lammps2cif' 
_symmetry_space_group_name_H-M    'P1' 
_symmetry_Int_Tables_number       1 
_symmetry_cell_setting            triclinic 
loop_ 
_symmetry_equiv_pos_as_xyz 
  x,y,z 
_cell_length_a                    27.60777981 
_cell_length_b                    30.765984867261153 
_cell_length_c                    27.499107884810375 
_cell_angle_alpha                 91.49942545460944 
_cell_angle_beta                  91.54155349661849 
_cell_angle_gamma                 90.06863961559154 
loop_ 
_atom_site_label 
_atom_site_type_symbol 
_atom_site_fract_x 
_atom_site_fract_y 
_atom_site_fract_z 
_atom_site_charge 
N1          N  0.44408618  0.43430092  0.42106129    -0.07300
N2          N  0.43145778  0.40517474  0.38694213    -0.59400
N3          N  0.41018248  0.53459937  0.45498766    -0.07000
N4          N  0.37804872  0.56586508  0.44770251    -0.61600
N5          N  0.44256093  0.53438035  0.42075940    -0.06600
N6          N  0.43333854  0.56560585  0.38975914    -0.59400
N7          N  0.41258292  0.43470580  0.45607007    -0.06300
N8          N  0.37800057  0.40593474  0.44644528    -0.61900
C9          C  0.39017527  0.38757173  0.40331977     0.94900
C10         C  0.39322777  0.58529445  0.40708930     0.94600
N11         N  0.45222045  0.53966563  0.60269331    -0.07500
N12         N  0.44401402  0.57183285  0.63419542    -0.60000
N13         N  0.41983519  0.43762762  0.57118678    -0.05600
N14         N  0.38915829  0.40630167  0.58107889    -0.61300
N15         N  0.45500451  0.43973247  0.60442674    -0.07500
N16         N  0.44882351  0.40996233  0.63745992    -0.60300
N17         N  0.41733965  0.53755232  0.56914866    -0.05300
N18         N  0.38497897  0.56823703  0.57675626    -0.61400
Mn19       Mn  0.41368652  0.48592234  0.51303706     1.18400
C20         C  0.40234993  0.58959815  0.61694076     0.96900
C21         C  0.40766127  0.38913145  0.62250588     0.97600
N22         N  0.55654435  0.53513985  0.41826261    -0.07600
N23         N  0.56250738  0.56535377  0.38583060    -0.63900
N24         N  0.59406475  0.43680503  0.45113065    -0.06400
N25         N  0.62785418  0.40826462  0.43968291    -0.64500
N26         N  0.55871657  0.43565808  0.41803901    -0.07100
N27         N  0.56795953  0.40635176  0.38356822    -0.64100
N28         N  0.59218815  0.53639024  0.45092112    -0.06000
N29         N  0.62311527  0.56750517  0.44123111    -0.64800
Mn30       Mn  0.50042592  0.48472734  0.41828827     1.10700
C31         C  0.60415668  0.58541949  0.40046768     0.98200
C32         C  0.61096876  0.38901381  0.39766964     0.98200
N33         N  0.56914571  0.44186918  0.60221813    -0.07100
N34         N  0.58055872  0.41317175  0.63551352    -0.62400
N35         N  0.59846905  0.54054502  0.56533844    -0.06400
N36         N  0.62940147  0.57309592  0.57112478    -0.59200
N37         N  0.56667269  0.54187415  0.60007758    -0.07700
N38         N  0.57553546  0.57535057  0.63018506    -0.62000
N39         N  0.60039854  0.44023987  0.56689411    -0.06700
N40         N  0.63356149  0.41018266  0.57531207    -0.59200
Mn41       Mn  0.51080526  0.49090829  0.60391460     1.20200
Mn42       Mn  0.59768392  0.48831498  0.50861013     1.10100
Cl43       Cl  0.50568787  0.48733086  0.51095693    -0.87200
C44         C  0.62050863  0.39346549  0.61806117     0.95200
C45         C  0.61492123  0.59469689  0.61168613     0.95000
N46         N  0.92798069  0.47300771  0.90094971    -0.07300
N47         N  0.91837802  0.44087509  0.86943457    -0.59400
N48         N  0.89381102  0.57289734  0.93408763    -0.07000
N49         N  0.85956668  0.60160622  0.92448173    -0.61600
N50         N  0.92639126  0.57235577  0.89991703    -0.06600
N51         N  0.91520286  0.60103249  0.86660991    -0.59400
N52         N  0.89559111  0.47412790  0.93517225    -0.06300
N53         N  0.86335012  0.44286833  0.92765546    -0.61900
C54         C  0.87786065  0.42247275  0.88646941     0.94900
C55         C  0.87365017  0.61891747  0.88249042     0.94600
N56         N  0.93422059  0.57773811  0.08269398    -0.07500
N57         N  0.92580058  0.60771330  0.11650620    -0.60000
N58         N  0.90125190  0.47647307  0.04885787    -0.05600
N59         N  0.87279483  0.44265263  0.05479450    -0.61300
N60         N  0.93624276  0.47771153  0.08224182    -0.07500
N61         N  0.93224441  0.44473399  0.11162485    -0.60300
N62         N  0.89879420  0.57661338  0.04977078    -0.05300
N63         N  0.86556327  0.60588897  0.06081434    -0.61400
Mn64       Mn  0.89592244  0.52525161  0.99214382     1.18400
C65         C  0.88304710  0.62537729  0.10251476     0.96900
C66         C  0.89272764  0.42287716  0.09381844     0.97600
N67         N  0.04155856  0.57402756  0.89804607    -0.07600
N68         N  0.04887738  0.60475883  0.86619366    -0.63900
N69         N  0.07722064  0.47486357  0.93311477    -0.06400
N70         N  0.10928481  0.44383517  0.92568872    -0.64500
N71         N  0.04279475  0.47323182  0.89912762    -0.07100
N72         N  0.05097421  0.44080039  0.86782327    -0.64100
N73         N  0.07621917  0.57486631  0.93179933    -0.06000
N74         N  0.10755633  0.60603027  0.92355876    -0.64800
Mn75       Mn  0.98468865  0.52314901  0.89790498     1.10700
C76         C  0.09016401  0.62487649  0.88279481     0.98200
C77         C  0.09250976  0.42246414  0.88505272     0.98200
N78         N  0.04945262  0.47938339  0.08209181    -0.07100
N79         N  0.05789335  0.44842009  0.11356305    -0.62400
N80         N  0.08064980  0.57836928  0.04622936    -0.06400
N81         N  0.11393732  0.60863726  0.05444073    -0.59200
N82         N  0.04854763  0.57957898  0.08070814    -0.07700
N83         N  0.05950548  0.61079221  0.11310679    -0.62000
N84         N  0.08154779  0.47801410  0.04765009    -0.06700
N85         N  0.11247962  0.44591530  0.05499714    -0.59200
Mn86       Mn  0.99211406  0.52885647  0.08341273     1.20200
Mn87       Mn  0.08020275  0.52653284  0.98964661     1.10100
Cl88       Cl  0.98820420  0.52612351  0.99069791    -0.87200
C89         C  0.09707537  0.42744548  0.09606831     0.95200
C90         C  0.10010077  0.62909660  0.09592877     0.95000
C91         C  0.72425105  0.21344944  0.79535916     0.85300
C92         C  0.75595783  0.24711114  0.82417177    -0.55000
C93         C  0.78357847  0.27255393  0.79589548     0.08200
C94         C  0.77791401  0.26194993  0.74108647     0.19200
C95         C  0.69540503  0.24118017  0.75904653    -0.55700
C96         C  0.72319193  0.26613683  0.73057698     0.08300
C97         C  0.76077105  0.18780949  0.76478892    -0.55200
C98         C  0.78861415  0.21287610  0.73623277     0.08900
H99         H  0.75596203  0.25298703  0.86321473     0.13400
H100        H  0.80021428  0.28270256  0.71793152    -0.00900
H101        H  0.65605257  0.24228362  0.75733356     0.13700
H102        H  0.76356874  0.15258661  0.76482121     0.13500
N103        N  0.39903420  0.05240538  0.94912818    -0.07300
N104        N  0.36680038  0.08308143  0.94010787    -0.59400
N105        N  0.43076120  0.95271999  0.91415055    -0.07000
N106        N  0.42014548  0.92400271  0.87895808    -0.61600
N107        N  0.39775711  0.95216230  0.94777058    -0.06600
N108        N  0.36392198  0.92293740  0.93584464    -0.59400
N109        N  0.43290134  0.05251899  0.91635806    -0.06300
N110        N  0.42427388  0.08314843  0.88442841    -0.61900
C111        C  0.38314530  0.10236846  0.89988936     0.94900
C112        C  0.37866701  0.90520143  0.89302267     0.94600
N113        N  0.57942208  0.94963238  0.95033481    -0.07500
N114        N  0.61104085  0.91894676  0.93866187    -0.60000
N115        N  0.54821452  0.05017534  0.91758778    -0.05600
N116        N  0.55799722  0.07996252  0.88549231    -0.61300
N117        N  0.58252365  0.04944827  0.95166503    -0.07500
N118        N  0.61593386  0.07888818  0.94386865    -0.60300
N119        N  0.54415607  0.95057508  0.91722487    -0.05300
N120        N  0.55066387  0.92054974  0.88316492    -0.61400
Mn121      Mn  0.48910038  0.00171131  0.91524402     1.18400
C122        C  0.59239413  0.90099146  0.89649477     0.96900
C123        C  0.59998802  0.09803422  0.90284717     0.97600
N124        N  0.40166539  0.95412075  0.06524173    -0.07600
N125        N  0.37110285  0.92254851  0.07551594    -0.63900
N126        N  0.43626671  0.05613025  0.09760737    -0.06400
N127        N  0.42858676  0.08831229  0.12922911    -0.64500
N128        N  0.40180732  0.05482738  0.06358063    -0.07100
N129        N  0.37037410  0.08646169  0.07095190    -0.64100
N130        N  0.43662420  0.95654590  0.09867579    -0.06000
N131        N  0.43080418  0.92695636  0.13167531    -0.64800
Mn132      Mn  0.39844785  0.00300044  0.00657283     1.10700
C133        C  0.38996798  0.90576547  0.11726568     0.98200
C134        C  0.38784352  0.10730012  0.11160333     0.98200
N135        N  0.58447741  0.05335983  0.06532390    -0.07100
N136        N  0.61682045  0.08461996  0.07319469    -0.62400
N137        N  0.54952142  0.95567107  0.10019023    -0.06400
N138        N  0.55786522  0.92642025  0.13358213    -0.59200
N139        N  0.58249617  0.95320725  0.06665163    -0.07700
N140        N  0.61415514  0.92234718  0.07684166    -0.62000
N141        N  0.55094199  0.05553950  0.09841009    -0.06700
N142        N  0.55991434  0.08807324  0.12968094    -0.59200
Mn143      Mn  0.58374911  0.00105761  0.00851830     1.20200
Mn144      Mn  0.49328231  0.00623003  0.09995516     1.10100
Cl145      Cl  0.49109610  0.00291714  0.00754059    -0.87200
C146        C  0.60072562  0.10617138  0.11309978     0.95200
C147        C  0.59810591  0.90552752  0.11852300     0.95000
C148        C  0.27683618  0.71782723  0.70947030     0.85300
C149        C  0.24783152  0.74670736  0.67417784    -0.55000
C150        C  0.21905261  0.77731541  0.69633855     0.08200
C151        C  0.22214991  0.77593458  0.75274914     0.19200
C152        C  0.30477632  0.74985293  0.74339856    -0.55700
C153        C  0.27672464  0.78035078  0.76578518     0.08300
C154        C  0.23716281  0.69867523  0.74110099    -0.55200
C155        C  0.20916808  0.72865441  0.76402912     0.08900
H156        H  0.25126898  0.74393860  0.63510659     0.13400
H157        H  0.19920727  0.80025381  0.77174666    -0.00900
H158        H  0.34388011  0.74879293  0.74888578     0.13700
H159        H  0.22948933  0.66444982  0.74474927     0.13500
N160        N  0.95369211  0.06642532  0.57800757    -0.07300
N161        N  0.94623921  0.09519735  0.61341653    -0.59400
N162        N  0.91183495  0.96892471  0.54389138    -0.07000
N163        N  0.87697560  0.94109292  0.55254688    -0.61600
N164        N  0.94645341  0.96711983  0.57761239    -0.06600
N165        N  0.93542850  0.93816048  0.61024878    -0.59400
N166        N  0.91879720  0.06826282  0.54457911    -0.06300
N167        N  0.88680126  0.09828512  0.55705186    -0.61900
C168        C  0.90468311  0.11534157  0.59986715     0.94900
C169        C  0.89226703  0.92175273  0.59369349     0.94600
N170        N  0.94072402  0.96030651  0.39655570    -0.07500
N171        N  0.92915632  0.92792386  0.36591633    -0.60000
N172        N  0.91554702  0.06446509  0.42802069    -0.05600
N173        N  0.88478274  0.09609818  0.41818013    -0.61300
N174        N  0.94693391  0.05983664  0.39305311    -0.07500
N175        N  0.93794513  0.08810145  0.35863455    -0.60300
N176        N  0.90776164  0.96486239  0.42999450    -0.05300
N177        N  0.87298696  0.93573535  0.42275623    -0.61400
Mn178      Mn  0.91230810  0.01707009  0.48651591     1.18400
C179        C  0.88704445  0.91284049  0.38297880     0.96900
C180        C  0.89953498  0.11087269  0.37508448     0.97600
N181        N  0.06244813  0.96119707  0.57723669    -0.07600
N182        N  0.07176148  0.93171640  0.61038588    -0.63900
N183        N  0.09999096  0.05870765  0.54179735    -0.06400
N184        N  0.13462650  0.08771020  0.55096594    -0.64500
N185        N  0.06738867  0.06080600  0.57586612    -0.07100
N186        N  0.07879896  0.09150931  0.60853564    -0.64100
N187        N  0.09476635  0.95894746  0.54291511    -0.06000
N188        N  0.12618864  0.92752123  0.55159550    -0.64800
Mn189      Mn  0.00760302  0.01370376  0.57836819     1.10700
C190        C  0.11132753  0.91073614  0.59363168     0.98200
C191        C  0.12040463  0.10820823  0.59227094     0.98200
N192        N  0.06071766  0.05367134  0.39182213    -0.07100
N193        N  0.06915362  0.08172316  0.35765585    -0.62400
N194        N  0.09012487  0.95479899  0.42906219    -0.06400
N195        N  0.12091669  0.92276142  0.42158871    -0.59200
N196        N  0.05562214  0.95430720  0.39508752    -0.07700
N197        N  0.06277129  0.92208891  0.36327188    -0.62000
N198        N  0.09586849  0.05460555  0.42511023    -0.06700
N199        N  0.12911846  0.08348318  0.41384547    -0.59200
Mn200      Mn  0.00090847  0.00678529  0.39283774     1.20200
Mn201      Mn  0.09651525  0.00701560  0.48469823     1.10100
Cl202      Cl  0.00434534  0.01125561  0.48563320    -0.87200
C203        C  0.11196686  0.10006161  0.37143413     0.95200
C204        C  0.10312256  0.90230663  0.38094855     0.95000
C205        C  0.70592910  0.71999628  0.29596979     0.85300
C206        C  0.74041054  0.75163138  0.32429958    -0.55000
C207        C  0.76563146  0.77855508  0.29538885     0.08200
C208        C  0.75243721  0.77325345  0.24090259     0.19200
C209        C  0.67286697  0.75089506  0.26675486    -0.55700
C210        C  0.69705836  0.77909395  0.23842717     0.08300
C211        C  0.73690218  0.69730946  0.25777094    -0.55200
C212        C  0.76076623  0.72483584  0.22881415     0.08900
H213        H  0.74289304  0.75455547  0.36366258     0.13400
H214        H  0.77263625  0.79562996  0.21767715    -0.00900
H215        H  0.63369234  0.75100194  0.26853887     0.13700
H216        H  0.74011080  0.66217136  0.25417491     0.13500
C217        C  0.20433796  0.29377352  0.20302873     0.85300
C218        C  0.23999589  0.31805822  0.23766113    -0.55000
C219        C  0.26690016  0.29204102  0.26695246     0.08200
C220        C  0.25692459  0.24327133  0.25879281     0.19200
C221        C  0.23687187  0.26125455  0.17495141    -0.55700
C222        C  0.26431199  0.23468211  0.20401016     0.08300
C223        C  0.17468678  0.26434828  0.23553892    -0.55200
C224        C  0.20188396  0.23813356  0.26504915     0.08900
H225        H  0.24309717  0.35328441  0.23962730     0.13400
H226        H  0.27968187  0.22275720  0.28277276    -0.00900
H227        H  0.23862870  0.25835967  0.13579044     0.13700
H228        H  0.13533638  0.26347200  0.23425400     0.13500
C229        C  0.78928220  0.29168368  0.20012945     0.85300
C230        C  0.81969217  0.25851137  0.22821123    -0.55000
C231        C  0.79373743  0.23336869  0.25816375     0.08200
C232        C  0.73900228  0.24294341  0.25717082     0.19200
C233        C  0.75010046  0.26337776  0.17319622    -0.55700
C234        C  0.72359108  0.23820769  0.20308389     0.08300
C235        C  0.76083599  0.31716408  0.23880075    -0.55200
C236        C  0.73496851  0.29190104  0.26872334     0.08900
H237        H  0.85864612  0.25523629  0.22484758     0.13400
H238        H  0.71792677  0.22239276  0.28165555    -0.00900
H239        H  0.74413968  0.26127527  0.13424627     0.13700
H240        H  0.76038682  0.35245557  0.24162754     0.13500
C241        C  0.29094203  0.71819733  0.29375810     0.85300
C242        C  0.32171402  0.74734659  0.26124573    -0.55000
C243        C  0.29542297  0.77445320  0.23173962     0.08200
C244        C  0.24024855  0.76985161  0.23753675     0.19200
C245        C  0.25852554  0.75053342  0.32134951    -0.55700
C246        C  0.23188267  0.77753205  0.29227634     0.08300
C247        C  0.25694172  0.69452517  0.25683538    -0.55200
C248        C  0.23036922  0.72125453  0.22780005     0.08900
H249        H  0.36076955  0.74658218  0.25981104     0.13400
H250        H  0.21775733  0.79114256  0.21425242    -0.00900
H251        H  0.25671042  0.75174224  0.36076843     0.13700
H252        H  0.25443517  0.65932379  0.25346291     0.13500
C253        C  0.21037498  0.28942599  0.78581675     0.85300
C254        C  0.18540186  0.25772247  0.74854127    -0.55000
C255        C  0.21613541  0.23026613  0.72454355     0.08200
C256        C  0.26980510  0.23673506  0.74019520     0.19200
C257        C  0.23917264  0.25904468  0.81940689    -0.55700
C258        C  0.27025588  0.23152468  0.79593985     0.08300
C259        C  0.24864470  0.31244192  0.75624212    -0.55200
C260        C  0.27972066  0.28531914  0.73268727     0.08900
H261        H  0.14673202  0.25546543  0.74145603     0.13400
H262        H  0.29534511  0.21507545  0.72070798    -0.00900
H263        H  0.23494036  0.25901572  0.85855889     0.13700
H264        H  0.25095342  0.34759634  0.75401663     0.13500
C265        C  0.77225383  0.80400294  0.70440283     0.85300
C266        C  0.80383407  0.77466055  0.73672495    -0.55000
C267        C  0.77843709  0.74814405  0.76607632     0.08200
C268        C  0.72311797  0.75223876  0.75933017     0.19200
C269        C  0.73858962  0.77163533  0.67601572    -0.55700
C270        C  0.71345528  0.74406008  0.70427615     0.08300
C271        C  0.73799926  0.82758637  0.73910761    -0.55200
C272        C  0.71289953  0.80088485  0.76832927     0.08900
H273        H  0.84307421  0.77415076  0.73517693     0.13400
H274        H  0.70247120  0.73063365  0.78293440    -0.00900
H275        H  0.73485528  0.76878760  0.63672117     0.13700
H276        H  0.73367239  0.86269570  0.74033763     0.13500
C277        C  0.18671266  0.12573237  0.65158629    -0.10400
C278        C  0.14962817  0.14029268  0.62037942     0.05800
C279        C  0.13735883  0.18447860  0.62083023    -0.04100
C280        C  0.16153448  0.21339565  0.65309085    -0.08600
C281        C  0.19736099  0.19886253  0.68631087     0.05000
C282        C  0.21043450  0.15442445  0.68470033    -0.03600
Br283      Br  0.25586098  0.12921390  0.72958158    -0.03300
H284        H  0.19553222  0.09142904  0.65190929     0.08900
H285        H  0.15119353  0.24734484  0.65320559     0.06900
Br286      Br  0.08637771  0.20628017  0.57947970    -0.03700
C287        C  0.17016284  0.16206518  0.36739877    -0.10400
C288        C  0.13652768  0.13404290  0.34343156     0.05800
C289        C  0.12615335  0.13997731  0.29333106    -0.04100
C290        C  0.14684324  0.17472022  0.26952100    -0.08600
C291        C  0.17962477  0.20325780  0.29367666     0.05000
C292        C  0.19195735  0.19616706  0.34298026    -0.03600
Br293      Br  0.23639075  0.23283270  0.37970454    -0.03300
H294        H  0.17903254  0.15792113  0.40559874     0.08900
H295        H  0.13859076  0.17854707  0.23112531     0.06900
Br296      Br  0.08751605  0.10029414  0.25345589    -0.03700
C297        C  0.80197722  0.83368662  0.62336107    -0.10400
C298        C  0.80291877  0.83526253  0.67481753     0.05800
C299        C  0.83438895  0.86629851  0.69845206    -0.04100
C300        C  0.86403397  0.89287803  0.67133587    -0.08600
C301        C  0.86247988  0.89089466  0.62044724     0.05000
C302        C  0.83073499  0.86109289  0.59641524    -0.03600
Br303      Br  0.82627440  0.85450662  0.52668029    -0.03300
H304        H  0.77921590  0.81109494  0.60241813     0.08900
H305        H  0.88754900  0.91633819  0.69033988     0.06900
Br306      Br  0.83831398  0.87607916  0.76770011    -0.03700
C307        C  0.16539831  0.79647716  0.34898800    -0.10400
C308        C  0.19647953  0.80951210  0.31224791     0.05800
C309        C  0.19372561  0.85290538  0.29653841    -0.04100
C310        C  0.16051396  0.88177380  0.31728084    -0.08600
C311        C  0.13062502  0.86881613  0.35454416     0.05000
C312        C  0.13315537  0.82588018  0.37050987    -0.03600
Br313      Br  0.09398383  0.80656101  0.42234099    -0.03300
H314        H  0.16664839  0.76341021  0.36153316     0.08900
H315        H  0.15988651  0.91529442  0.30611310     0.06900
Br316      Br  0.23780422  0.87707201  0.25178937    -0.03700
C317        C  0.87143762  0.83523726  0.36157503    -0.10400
C318        C  0.85740869  0.87880623  0.35837001     0.05800
C319        C  0.81470632  0.88936958  0.33224183    -0.04100
C320        C  0.78589527  0.85629493  0.31079741    -0.08600
C321        C  0.79887968  0.81255506  0.31551010     0.05000
C322        C  0.84242090  0.80208555  0.34050529    -0.03600
Br323      Br  0.86460241  0.74335011  0.34560517    -0.03300
H324        H  0.90464607  0.82697290  0.38107771     0.08900
H325        H  0.75274878  0.86467155  0.29123702     0.06900
Br326      Br  0.79498999  0.94858942  0.32430304    -0.03700
C327        C  0.82672100  0.20983335  0.33794569    -0.10400
C328        C  0.81745842  0.20031241  0.28849634     0.05800
C329        C  0.83564136  0.16161478  0.26763149    -0.04100
C330        C  0.86278073  0.13314099  0.29631750    -0.08600
C331        C  0.87223599  0.14264779  0.34587533     0.05000
C332        C  0.85424772  0.18156747  0.36659109    -0.03600
Br333      Br  0.87025738  0.19972748  0.43223141    -0.03300
H334        H  0.81396233  0.24005268  0.35392074     0.08900
H335        H  0.87613134  0.10322532  0.27993306     0.06900
Br336      Br  0.82401564  0.14623774  0.20026208    -0.03700
C337        C  0.18871462  0.85334258  0.68836349    -0.10400
C338        C  0.19021506  0.81054835  0.66908492     0.05800
C339        C  0.16476093  0.80121561  0.62441635    -0.04100
C340        C  0.13967504  0.83435620  0.60030084    -0.08600
C341        C  0.13801847  0.87667581  0.62015793     0.05000
C342        C  0.16288871  0.88609622  0.66449226    -0.03600
Br343      Br  0.16486278  0.94389644  0.69240224    -0.03300
H344        H  0.20857661  0.86176225  0.72177585     0.08900
H345        H  0.12047433  0.82683193  0.56622886     0.06900
Br346      Br  0.15908853  0.74390380  0.59535208    -0.03700
C347        C  0.69033299  0.16304367  0.19928183    -0.10400
C348        C  0.68713428  0.20612475  0.18398817     0.05800
C349        C  0.65155053  0.21685029  0.14840400    -0.04100
C350        C  0.62297245  0.18399978  0.12593582    -0.08600
C351        C  0.62840018  0.14064613  0.13941661     0.05000
C352        C  0.66131065  0.13041346  0.17728840    -0.03600
Br353      Br  0.66901830  0.07193805  0.19876095    -0.03300
H354        H  0.71673603  0.15435346  0.22716701     0.08900
H355        H  0.59660710  0.19227010  0.09780265     0.06900
Br356      Br  0.63861332  0.27590607  0.13125573    -0.03700
C357        C  0.33450954  0.12965217  0.17816817    -0.10400
C358        C  0.36083645  0.14126124  0.13779397     0.05800
C359        C  0.35738788  0.18377250  0.12078807    -0.04100
C360        C  0.32703869  0.21387007  0.14382924    -0.08600
C361        C  0.29886251  0.20208457  0.18343457     0.05000
C362        C  0.30331311  0.15924274  0.20074471    -0.03600
Br363      Br  0.26485328  0.13630149  0.25101779    -0.03300
H364        H  0.33653130  0.09661727  0.19081952     0.08900
H365        H  0.32511769  0.24658743  0.13031786     0.06900
Br366      Br  0.39340804  0.20185438  0.06616214    -0.03700
C367        C  0.36037596  0.82889395  0.21947913    -0.10400
C368        C  0.31935243  0.80681156  0.20028835     0.05800
C369        C  0.30280207  0.81669291  0.15265632    -0.04100
C370        C  0.32640869  0.84868188  0.12642112    -0.08600
C371        C  0.36719293  0.87101561  0.14596727     0.05000
C372        C  0.38461051  0.86001262  0.19310917    -0.03600
Br373      Br  0.44079814  0.88547098  0.22566310    -0.03300
H374        H  0.37359388  0.82237690  0.25599941     0.08900
H375        H  0.31290571  0.85581762  0.09016352     0.06900
Br376      Br  0.25049256  0.78648685  0.11930404    -0.03700
C377        C  0.65447912  0.84289583  0.88382649    -0.10400
C378        C  0.61847943  0.87011656  0.86410502     0.05800
C379        C  0.61042776  0.86938767  0.81289660    -0.04100
C380        C  0.63965831  0.84391986  0.78311884    -0.08600
C381        C  0.67721419  0.81885897  0.80257185     0.05000
C382        C  0.68362128  0.81714834  0.85349631    -0.03600
Br383      Br  0.73378815  0.78310495  0.88323882    -0.03300
H384        H  0.66093676  0.84258536  0.92285492     0.08900
H385        H  0.63459023  0.84533684  0.74395228     0.06900
Br386      Br  0.56432669  0.90533742  0.77907972    -0.03700
C387        C  0.34971971  0.19697731  0.81757357    -0.10400
C388        C  0.29922225  0.19822493  0.82207273     0.05800
C389        C  0.27694922  0.16770236  0.85172577    -0.04100
C390        C  0.30513472  0.13754722  0.87702658    -0.08600
C391        C  0.35573640  0.13631011  0.87308477     0.05000
C392        C  0.37808030  0.16656924  0.84284879    -0.03600
Br393      Br  0.44708109  0.16990226  0.83660275    -0.03300
H394        H  0.36726468  0.22031641  0.79500333     0.08900
H395        H  0.28705217  0.11412199  0.89904061     0.06900
Br396      Br  0.20778005  0.16311435  0.85586398    -0.03700
C397        C  0.61106780  0.86805014  0.19655802    -0.10400
C398        C  0.62373909  0.87223206  0.14771546     0.05800
C399        C  0.66120301  0.84568931  0.12932307    -0.04100
C400        C  0.68537158  0.81668101  0.15996200    -0.08600
C401        C  0.67206795  0.81214943  0.20842734     0.05000
C402        C  0.63477753  0.83869803  0.22687251    -0.03600
Br403      Br  0.61689924  0.83947372  0.29398285    -0.03300
H404        H  0.58304659  0.88842565  0.21185626     0.08900
H405        H  0.71417205  0.79686088  0.14540409     0.06900
Br406      Br  0.67980640  0.84509765  0.06251213    -0.03700
C407        C  0.29490419  0.81221604  0.84879238    -0.10400
C408        C  0.29864063  0.81482815  0.79817485     0.05800
C409        C  0.32801734  0.84744254  0.77927951    -0.04100
C410        C  0.35335811  0.87640870  0.81079002    -0.08600
C411        C  0.35021962  0.87374890  0.86159570     0.05000
C412        C  0.32057512  0.84109964  0.88052821    -0.03600
Br413      Br  0.31739326  0.83159165  0.94904278    -0.03300
H414        H  0.27348742  0.78652157  0.86373726     0.08900
H415        H  0.37564396  0.90125652  0.79533716     0.06900
Br416      Br  0.33456275  0.85384109  0.71054417    -0.03700
C417        C  0.81331304  0.19664087  0.65152349    -0.10400
C418        C  0.82295260  0.19323986  0.70152506     0.05800
C419        C  0.86185802  0.16722545  0.71739117    -0.04100
C420        C  0.88932349  0.14417459  0.68339109    -0.08600
C421        C  0.87783271  0.14508520  0.63321290     0.05000
C422        C  0.83953992  0.17227164  0.61742164    -0.03600
Br423      Br  0.82000136  0.17725225  0.55044234    -0.03300
H424        H  0.78368193  0.21681478  0.63899391     0.08900
H425        H  0.91855246  0.12385605  0.69670591     0.06900
Br426      Br  0.87851322  0.16145600  0.78515034    -0.03700
C427        C  0.62944934  0.12687317  0.82581908    -0.10400
C428        C  0.62880231  0.12978969  0.87663248     0.05800
C429        C  0.65819132  0.16095769  0.90141706    -0.04100
C430        C  0.68872434  0.18746666  0.87537858    -0.08600
C431        C  0.69088155  0.18417501  0.82411222     0.05000
C432        C  0.65997610  0.15327413  0.79955385    -0.03600
Br433      Br  0.65730327  0.14444701  0.73000971    -0.03300
H434        H  0.60699973  0.10290039  0.80630537     0.08900
H435        H  0.71037820  0.21061130  0.89671061     0.06900
Br436      Br  0.65639909  0.17061857  0.97074798    -0.03700
C437        C  0.11914845  0.38928387  0.17204440    -0.10400
C438        C  0.12186958  0.39122091  0.12132195     0.05800
C439        C  0.14848740  0.35895823  0.09646815    -0.04100
C440        C  0.17339046  0.32695814  0.12253681    -0.08600
C441        C  0.17292364  0.32595605  0.17388984     0.05000
C442        C  0.14405797  0.35752465  0.19828853    -0.03600
Br443      Br  0.13784870  0.36085620  0.26789017    -0.03300
H444        H  0.09843762  0.41349608  0.19182476     0.08900
H445        H  0.19319111  0.30336734  0.10146541     0.06900
Br446      Br  0.15065401  0.35536969  0.02668486    -0.03700
C447        C  0.18237474  0.65564940  0.11909513    -0.10400
C448        C  0.13210621  0.65936639  0.12464860     0.05800
C449        C  0.11460804  0.68880598  0.16031581    -0.04100
C450        C  0.14727548  0.71083056  0.19220612    -0.08600
C451        C  0.19723275  0.70382945  0.18907734     0.05000
C452        C  0.21482396  0.67731592  0.15105057    -0.03600
Br453      Br  0.28294291  0.66917939  0.14163502    -0.03300
H454        H  0.19674854  0.63404163  0.09131357     0.08900
H455        H  0.13359535  0.73210174  0.22069982     0.06900
Br456      Br  0.04699599  0.70091531  0.16658831    -0.03700
C457        C  0.84155753  0.69809400  0.20799005    -0.10400
C458        C  0.79441007  0.70786060  0.19237239     0.05800
C459        C  0.77794428  0.69368405  0.14585584    -0.04100
C460        C  0.80854737  0.66920451  0.11605573    -0.08600
C461        C  0.85517582  0.65697173  0.13261279     0.05000
C462        C  0.87180183  0.67247069  0.17921401    -0.03600
Br463      Br  0.93297045  0.65758473  0.20916083    -0.03300
H464        H  0.85383816  0.70809726  0.24427155     0.08900
H465        H  0.79468070  0.65778747  0.08078240     0.06900
Br466      Br  0.71265385  0.70355997  0.12332239    -0.03700
C467        C  0.09989029  0.67001119  0.80916526    -0.10400
C468        C  0.11622534  0.65935519  0.85635552     0.05800
C469        C  0.15926554  0.67959577  0.87527273    -0.04100
C470        C  0.18634700  0.70649433  0.84587876    -0.08600
C471        C  0.17184818  0.71406469  0.79773043     0.05000
C472        C  0.12746856  0.69673380  0.77987870    -0.03200
Br473      Br  0.10537646  0.70584063  0.71425542    -0.03300
H474        H  0.06687409  0.65563631  0.79381628     0.08900
H475        H  0.22088815  0.71907629  0.85963205     0.06900
Br476      Br  0.18571484  0.67078843  0.93963288    -0.03700
C477        C  0.86596292  0.69414642  0.85539554    -0.10400
C478        C  0.84665124  0.65223888  0.85609822     0.05800
C479        C  0.80351674  0.64248092  0.82971373    -0.04100
C480        C  0.78174805  0.67421409  0.80089133    -0.08600
C481        C  0.80176714  0.71617922  0.79887941     0.05000
C482        C  0.84346936  0.72634279  0.82804995    -0.03600
Br483      Br  0.86985623  0.78377421  0.83588539    -0.03300
H484        H  0.89854100  0.70197858  0.87671396     0.08900
H485        H  0.74968146  0.66565271  0.77917645     0.06900
Br486      Br  0.77428606  0.58590055  0.83040890    -0.03700
C487        C  0.16966532  0.38289741  0.87194064    -0.10400
C488        C  0.12002754  0.38690306  0.86047518     0.05800
C489        C  0.09907120  0.35757780  0.82570245    -0.04100
C490        C  0.12782407  0.32601303  0.80277882    -0.08600
C491        C  0.17811850  0.32230464  0.81329316     0.05000
C492        C  0.19857460  0.35170212  0.84885998    -0.03600
Br493      Br  0.26634373  0.35271213  0.86727579    -0.03300
H494        H  0.18676737  0.40503839  0.89849238     0.08900
H495        H  0.10952911  0.30515927  0.77605715     0.06900
Br496      Br  0.03117610  0.35753608  0.80841483    -0.03700
C497        C  0.88001780  0.38068216  0.16765763    -0.10400
C498        C  0.87087482  0.38540301  0.11780315     0.05800
C499        C  0.83924948  0.35577467  0.09315308    -0.04100
C500        C  0.81434014  0.32478128  0.11931517    -0.08600
C501        C  0.82044627  0.32199604  0.17031546     0.05000
C502        C  0.85569067  0.34957354  0.19384006    -0.03600
Br503      Br  0.87213163  0.34833387  0.26219123    -0.03300
H504        H  0.90511448  0.40245880  0.18704477     0.08900
H505        H  0.79014739  0.30353192  0.09871294     0.06900
Br506      Br  0.82975765  0.35448577  0.02359406    -0.03700
C507        C  0.87975503  0.35592838  0.83393164    -0.10400
C508        C  0.85270112  0.38505168  0.86248884     0.05800
C509        C  0.80253032  0.37771317  0.86702884    -0.04100
C510        C  0.78106279  0.34123570  0.84427287    -0.08600
C511        C  0.80835390  0.31167282  0.81665266     0.05000
C512        C  0.85805937  0.31944682  0.81109113    -0.03600
Br513      Br  0.89861261  0.28037383  0.77531602    -0.03300
H514        H  0.91825527  0.36106507  0.83008898     0.08900
H515        H  0.74252842  0.33595598  0.84796281     0.06900
Br516      Br  0.76024356  0.41680095  0.90116553    -0.03700
C517        C  0.70900033  0.68259688  0.64391662    -0.10400
C518        C  0.68693502  0.70582056  0.68199370     0.05800
C519        C  0.64054734  0.69270983  0.69608894    -0.04100
C520        C  0.61793545  0.65653870  0.67281739    -0.08600
C521        C  0.64010595  0.63335805  0.63450136     0.05000
C522        C  0.68611011  0.64750591  0.61967013    -0.03600
Br523      Br  0.72116928  0.62143506  0.56693316    -0.03300
H524        H  0.74477664  0.69186624  0.63265292     0.08900
H525        H  0.58234296  0.64699516  0.68430994     0.06900
Br526      Br  0.60469666  0.72465648  0.74390164    -0.03700
C527        C  0.34488936  0.33151113  0.62643399    -0.10400
C528        C  0.38190152  0.35583234  0.65051112     0.05800
C529        C  0.38947070  0.35056244  0.70122689    -0.04100
C530        C  0.35765976  0.32459467  0.72680104    -0.08600
C531        C  0.31875094  0.30297872  0.70298245     0.05000
C532        C  0.31353454  0.30532144  0.65211244    -0.03600
Br533      Br  0.26157534  0.27685952  0.61637489    -0.03300
H534        H  0.33882353  0.33432512  0.58755612     0.08900
H535        H  0.36183225  0.32298324  0.76601979     0.06900
Br536      Br  0.43926747  0.38022077  0.73932840    -0.03700
C537        C  0.65264519  0.31205898  0.29547168    -0.10400
C538        C  0.70266072  0.31124016  0.30539917     0.05800
C539        C  0.72142076  0.33299246  0.34735613    -0.04100
C540        C  0.69045361  0.35611264  0.37792741    -0.08600
C541        C  0.64050339  0.35913111  0.36699941     0.05000
C542        C  0.62148850  0.33592634  0.32550836    -0.03600
Br543      Br  0.55394315  0.33547110  0.30681518    -0.03300
H544        H  0.63801220  0.29547261  0.26305108     0.08900
H545        H  0.70611126  0.37329491  0.40944518     0.06900
Br546      Br  0.78928166  0.33319887  0.36389458    -0.03700
C547        C  0.31704536  0.62349815  0.38126160    -0.10400
C548        C  0.36781609  0.62183984  0.38276804     0.05800
C549        C  0.39349571  0.65474771  0.35984551    -0.04100
C550        C  0.36880569  0.68608946  0.33271153    -0.08600
C551        C  0.31776464  0.68623141  0.32763712     0.05000
C552        C  0.29202016  0.65529738  0.35473690    -0.03600
Br553      Br  0.22245052  0.65394367  0.35726609    -0.03300
H554        H  0.29655967  0.59928438  0.39996086     0.08900
H555        H  0.39067402  0.71057283  0.31667579     0.06900
Br556      Br  0.46237704  0.66094838  0.36772726    -0.03700
C557        C  0.63496127  0.66954346  0.30663736    -0.10400
C558        C  0.67915433  0.68660720  0.32571255     0.05800
C559        C  0.70017584  0.66604804  0.36680620    -0.04100
C560        C  0.67368895  0.63529086  0.39155186    -0.08600
C561        C  0.62844598  0.62023346  0.37375791     0.05000
C562        C  0.61002986  0.63663640  0.32946541    -0.03600
Br563      Br  0.55399307  0.61375351  0.29451934    -0.03300
H564        H  0.62047940  0.68004283  0.27197209     0.08900
H565        H  0.69017915  0.62116123  0.42364149     0.06900
Br566      Br  0.76688246  0.67173568  0.38776700    -0.03700
C567        C  0.65290630  0.31862864  0.62730144    -0.10400
C568        C  0.64950135  0.36157087  0.64527316     0.05800
C569        C  0.67305977  0.37335024  0.68976306    -0.04100
C570        C  0.69923359  0.34223561  0.71573402    -0.08600
C571        C  0.70126053  0.29898979  0.69862263     0.05000
C572        C  0.67788765  0.28717998  0.65408009    -0.03600
Br573      Br  0.67804102  0.22837612  0.62927522    -0.03300
H574        H  0.63478604  0.30924343  0.59319533     0.08900
H575        H  0.71660752  0.35146856  0.75027284     0.06900
Br576      Br  0.67046599  0.43152582  0.71646293    -0.03700
C577        C  0.31332457  0.64128490  0.70148011    -0.10400
C578        C  0.31110653  0.68465855  0.68545919     0.05800
C579        C  0.34437015  0.69678871  0.64951926    -0.04100
C580        C  0.37458302  0.66554997  0.62813556    -0.08600
C581        C  0.37416459  0.62251769  0.64302302     0.05000
C582        C  0.34377666  0.61051282  0.68026739    -0.03600
Br583      Br  0.34181308  0.55188985  0.70264971    -0.03300
H584        H  0.29279316  0.63038175  0.73152733     0.08900
H585        H  0.39858929  0.67490737  0.59966212     0.06900
Br586      Br  0.35247787  0.75527431  0.62833418    -0.03700
C587        C  0.27865013  0.33407211  0.34387971    -0.10400
C588        C  0.29938553  0.31072763  0.30539398     0.05800
C589        C  0.34996753  0.30997795  0.30149417    -0.04100
C590        C  0.37900693  0.33365842  0.33522558    -0.08600
C591        C  0.35833949  0.35827173  0.37317397     0.05000
C592        C  0.30737050  0.35749871  0.37791809    -0.03600
Br593      Br  0.27322366  0.39032368  0.42654979    -0.03300
H594        H  0.23955232  0.33511861  0.34653735     0.08900
H595        H  0.41788648  0.33394496  0.33077825     0.06900
Br596      Br  0.38062773  0.28047814  0.24837281    -0.03700
loop_ 
_geom_bond_atom_site_label_1 
_geom_bond_atom_site_label_2 
_geom_bond_distance 
_geom_bond_site_symmetry_2 
_ccdc_geom_bond_type 
N1            N2   1.320       .  A
N1            N7   1.314       .  A
N1          Mn30   2.200       .  S
N2            C9   1.354       .  A
N3            N5   1.315       .  A
N3            N4   1.325       .  A
N3          Mn19   2.218       .  S
N4           C10   1.356       .  A
N5            N6   1.321       .  A
N5          Mn30   2.213       .  S
N6           C10   1.355       .  A
N7            N8   1.318       .  A
N7          Mn19   2.192       .  S
N8            C9   1.351       .  A
C9          C591   1.481       .  S
C10         C548   1.490       .  S
N11          N17   1.316       .  A
N11          N12   1.322       .  A
N11         Mn41   2.207       .  S
N12          C20   1.354       .  A
N13          N14   1.321       .  A
N13          N15   1.316       .  A
N13         Mn19   2.214       .  S
N14          C21   1.356       .  A
N15          N16   1.321       .  A
N15         Mn41   2.202       .  S
N16          C21   1.353       .  A
N17          N18   1.317       .  A
N17         Mn19   2.186       .  S
N18          C20   1.347       .  A
Mn19        Cl43   2.542       .  S
C20         C581   1.463       .  S
C21         C528   1.489       .  S
N22          N23   1.318       .  A
N22          N28   1.314       .  A
N22         Mn30   2.191       .  S
N23          C31   1.351       .  A
N24          N26   1.316       .  A
N24          N25   1.320       .  A
N24         Mn42   2.209       .  S
N25          C32   1.356       .  A
N26          N27   1.321       .  A
N26         Mn30   2.208       .  S
N27          C32   1.354       .  A
N28          N29   1.319       .  A
N28         Mn42   2.199       .  S
N29          C31   1.355       .  A
Mn30        Cl43   2.548       .  S
C31         C561   1.484       .  S
C32         C541   1.490       .  S
N33          N34   1.321       .  A
N33          N39   1.317       .  A
N33         Mn41   2.209       .  S
N34          C44   1.352       .  A
N35          N36   1.319       .  A
N35          N37   1.315       .  A
N35         Mn42   2.210       .  S
N36          C45   1.353       .  A
N37          N38   1.323       .  A
N37         Mn41   2.205       .  S
N38          C45   1.356       .  A
N39          N40   1.322       .  A
N39         Mn42   2.209       .  S
N40          C44   1.353       .  A
Mn41        Cl43   2.556       .  S
Mn42        Cl43   2.543       .  S
C44         C568   1.474       .  S
C45         C521   1.492       .  S
N46          N47   1.319       .  A
N46          N52   1.315       .  A
N46         Mn75   2.201       .  S
N47          C54   1.353       .  A
N48          N50   1.318       .  A
N48          N49   1.321       .  A
N48         Mn64   2.195       .  S
N49          C55   1.351       .  A
N50          N51   1.319       .  A
N50         Mn75   2.212       .  S
N51          C55   1.351       .  A
N52          N53   1.318       .  A
N52         Mn64   2.191       .  S
N53          C54   1.351       .  A
C54         C508   1.475       .  S
C55         C478   1.465       .  S
N56          N62   1.315       .  A
N56          N57   1.318       .  A
N56         Mn86   2.196       .  S
N57          C65   1.351       .  A
N58          N59   1.319       .  A
N58          N60   1.314       .  A
N58         Mn64   2.195   1_554  S
N59          C66   1.352       .  A
N60          N61   1.320       .  A
N60         Mn86   2.201       .  S
N61          C66   1.354       .  A
N62          N63   1.322       .  A
N62         Mn64   2.208   1_554  S
N63          C65   1.357       .  A
Mn64        Cl88   2.549       .  S
C65         C461   1.489       .  S
C66         C498   1.479       .  S
N67          N68   1.325       .  A
N67          N73   1.315       .  A
N67         Mn75   2.216   1_455  S
N68          C76   1.359       .  A
N69          N71   1.315       .  A
N69          N70   1.318       .  A
N69         Mn87   2.194       .  S
N70          C77   1.352       .  A
N71          N72   1.324       .  A
N71         Mn75   2.222   1_455  S
N72          C77   1.358       .  A
N73          N74   1.319       .  A
N73         Mn87   2.206       .  S
N74          C76   1.352       .  A
Mn75        Cl88   2.550       .  S
C76         C468   1.496       .  S
C77         C488   1.491       .  S
N78          N79   1.320       .  A
N78          N84   1.314       .  A
N78         Mn86   2.198   1_455  S
N79          C89   1.353       .  A
N80          N81   1.319       .  A
N80          N82   1.315       .  A
N80         Mn87   2.199   1_554  S
N81          C90   1.353       .  A
N82          N83   1.322       .  A
N82         Mn86   2.208   1_455  S
N83          C90   1.355       .  A
N84          N85   1.322       .  A
N84         Mn87   2.213   1_554  S
N85          C89   1.356       .  A
Mn86        Cl88   2.548   1_554  S
Mn87        Cl88   2.541   1_455  S
C89         C438   1.486       .  S
C90         C448   1.481       .  S
C91          C92   1.544       .  S
C91          C97   1.536       .  S
C91          C95   1.537       .  S
C91         C431   1.536       .  S
C92          H99   1.084       .  S
C92          C93   1.364       .  D
C93          C94   1.538       .  S
C93         C511   1.478       .  S
C94          C98   1.542       .  S
C94          C96   1.537       .  S
C94         H100   1.111       .  S
C95         H101   1.087       .  S
C95          C96   1.361       .  D
C96         C571   1.476       .  S
C97         H102   1.087       .  S
C97          C98   1.366       .  D
C98         C418   1.481       .  S
N103        N104   1.322       .  A
N103        N109   1.316       .  A
N103       Mn132   2.221   1_556  S
N104        C111   1.356       .  A
N105        N107   1.316       .  A
N105        N106   1.320       .  A
N105       Mn121   2.204   1_565  S
N106        C112   1.353       .  A
N107        N108   1.325       .  A
N107       Mn132   2.220   1_566  S
N108        C112   1.358       .  A
N109        N110   1.322       .  A
N109       Mn121   2.204       .  S
N110        C111   1.354       .  A
C111        C391   1.489       .  S
C112        C411   1.489       .  S
N113        N119   1.316       .  A
N113        N114   1.326       .  A
N113       Mn143   2.221   1_566  S
N114        C122   1.360       .  A
N115        N116   1.321       .  A
N115        N117   1.315       .  A
N115       Mn121   2.208       .  S
N116        C123   1.355       .  A
N117        N118   1.318       .  A
N117       Mn143   2.187   1_556  S
N118        C123   1.350       .  A
N119        N120   1.314       .  A
N119       Mn121   2.190   1_565  S
N120        C122   1.347       .  A
Mn121      Cl145   2.536   1_556  S
C122        C378   1.485       .  S
C123        C428   1.474       .  S
N124        N125   1.327       .  A
N124        N130   1.316       .  A
N124       Mn132   2.234   1_565  S
N125        C133   1.362       .  A
N126        N128   1.316       .  A
N126        N127   1.322       .  A
N126       Mn144   2.201       .  S
N127        C134   1.352       .  A
N128        N129   1.320       .  A
N128       Mn132   2.207       .  S
N129        C134   1.351       .  A
N130        N131   1.315       .  A
N130       Mn144   2.185   1_565  S
N131        C133   1.347       .  A
Mn132      Cl145   2.557       .  S
C133        C371   1.494       .  S
C134        C358   1.469       .  S
N135        N136   1.321       .  A
N135        N141   1.316       .  A
N135       Mn143   2.213       .  S
N136        C146   1.353       .  A
N137        N138   1.319       .  A
N137        N139   1.314       .  A
N137       Mn144   2.199   1_565  S
N138        C147   1.353       .  A
N139        N140   1.322       .  A
N139       Mn143   2.202   1_565  S
N140        C147   1.355       .  A
N141        N142   1.321       .  A
N141       Mn144   2.200       .  S
N142        C146   1.352       .  A
Mn143      Cl145   2.558       .  S
Mn144      Cl145   2.540       .  S
C146        C351   1.470       .  S
C147        C398   1.486       .  S
C148        C149   1.542       .  S
C148        C154   1.543       .  S
C148        C152   1.532       .  S
C148        C578   1.541       .  S
C149        H156   1.082       .  S
C149        C150   1.374       .  D
C150        C151   1.553       .  S
C150        C338   1.500       .  S
C151        C155   1.539       .  S
C151        C153   1.544       .  S
C151        H157   1.110       .  S
C152        H158   1.087       .  S
C152        C153   1.362       .  D
C153        C408   1.485       .  S
C154        H159   1.082       .  S
C154        C155   1.358       .  D
C155        C471   1.481       .  S
N160        N161   1.319       .  A
N160        N166   1.316       .  A
N160       Mn189   2.203   1_655  S
N161        C168   1.353       .  A
N162        N164   1.316       .  A
N162        N163   1.318       .  A
N162       Mn178   2.192   1_565  S
N163        C169   1.350       .  A
N164        N165   1.322       .  A
N164       Mn189   2.213   1_665  S
N165        C169   1.356       .  A
N166        N167   1.324       .  A
N166       Mn178   2.217       .  S
N167        C168   1.357       .  A
C168        C421   1.491       .  S
C169        C301   1.479       .  S
N170        N176   1.316       .  A
N170        N171   1.321       .  A
N170       Mn200   2.197   1_665  S
N171        C179   1.352       .  A
N172        N173   1.321       .  A
N172        N174   1.317       .  A
N172       Mn178   2.203       .  S
N173        C180   1.353       .  A
N174        N175   1.321       .  A
N174       Mn200   2.211   1_655  S
N175        C180   1.353       .  A
N176        N177   1.320       .  A
N176       Mn178   2.207   1_565  S
N177        C179   1.351       .  A
Mn178      Cl202   2.548   1_655  S
C179        C318   1.468       .  S
C180        C331   1.476       .  S
N181        N182   1.323       .  A
N181        N187   1.317       .  A
N181       Mn189   2.216   1_565  S
N182        C190   1.355       .  A
N183        N185   1.317       .  A
N183        N184   1.322       .  A
N183       Mn201   2.206       .  S
N184        C191   1.352       .  A
N185        N186   1.318       .  A
N185       Mn189   2.199       .  S
N186        C191   1.350       .  A
N187        N188   1.322       .  A
N187       Mn201   2.209   1_565  S
N188        C190   1.352       .  A
Mn189      Cl202   2.548       .  S
C190        C341   1.479       .  S
C191        C278   1.465       .  S
N192        N193   1.317       .  A
N192        N198   1.316       .  A
N192       Mn200   2.192       .  S
N193        C203   1.350       .  A
N194        N195   1.318       .  A
N194        N196   1.316       .  A
N194       Mn201   2.193   1_565  S
N195        C204   1.349       .  A
N196        N197   1.323       .  A
N196       Mn200   2.213   1_565  S
N197        C204   1.355       .  A
N198        N199   1.325       .  A
N198       Mn201   2.226       .  S
N199        C203   1.359       .  A
Mn200      Cl202   2.551       .  S
Mn201      Cl202   2.549       .  S
C203        C288   1.488       .  S
C204        C311   1.469       .  S
C205        C206   1.542       .  S
C205        C211   1.527       .  S
C205        C209   1.544       .  S
C205        C558   1.531       .  S
C206        H213   1.084       .  S
C206        C207   1.366       .  D
C207        C208   1.537       .  S
C207        C321   1.477       .  S
C208        C212   1.537       .  S
C208        C210   1.540       .  S
C208        H214   1.111       .  S
C209        H215   1.084       .  S
C209        C210   1.367       .  D
C210        C401   1.485       .  S
C211        H216   1.087       .  S
C211        C212   1.359       .  D
C212        C458   1.471       .  S
C217        C218   1.531       .  S
C217        C223   1.539       .  S
C217        C221   1.550       .  S
C217        C441   1.543       .  S
C218        H225   1.087       .  S
C218        C219   1.358       .  D
C219        C220   1.535       .  S
C219        C588   1.473       .  S
C220        C224   1.542       .  S
C220        C222   1.542       .  S
C220        H226   1.108       .  S
C221        H227   1.081       .  S
C221        C222   1.373       .  D
C222        C361   1.496       .  S
C223        H228   1.086       .  S
C223        C224   1.370       .  D
C224        C291   1.489       .  S
C229        C230   1.533       .  S
C229        C235   1.538       .  S
C229        C233   1.549       .  S
C229        C501   1.536       .  S
C230        H237   1.086       .  S
C230        C231   1.362       .  D
C231        C232   1.540       .  S
C231        C328   1.475       .  S
C232        C236   1.536       .  S
C232        C234   1.539       .  S
C232        H238   1.111       .  S
C233        H239   1.080       .  S
C233        C234   1.369       .  D
C234        C348   1.485       .  S
C235        H240   1.087       .  S
C235        C236   1.362       .  D
C236        C538   1.478       .  S
C241        C242   1.551       .  S
C241        C247   1.533       .  S
C241        C245   1.538       .  S
C241        C551   1.548       .  S
C242        H249   1.080       .  S
C242        C243   1.373       .  D
C243        C244   1.543       .  S
C243        C368   1.500       .  S
C244        C248   1.535       .  S
C244        C246   1.541       .  S
C244        H250   1.107       .  S
C245        H251   1.086       .  S
C245        C246   1.369       .  D
C246        C308   1.493       .  S
C247        H252   1.087       .  S
C247        C248   1.362       .  D
C248        C451   1.475       .  S
C253        C254   1.545       .  S
C253        C259   1.534       .  S
C253        C257   1.538       .  S
C253        C491   1.545       .  S
C254        H261   1.082       .  S
C254        C255   1.368       .  D
C255        C256   1.543       .  S
C255        C281   1.491       .  S
C256        C260   1.539       .  S
C256        C258   1.545       .  S
C256        H262   1.110       .  S
C257        H263   1.086       .  S
C257        C258   1.368       .  D
C258        C388   1.488       .  S
C259        H264   1.087       .  S
C259        C260   1.362       .  D
C260        C531   1.481       .  S
C265        C266   1.539       .  S
C265        C271   1.532       .  S
C265        C269   1.544       .  S
C265        C298   1.543       .  S
C266        H273   1.085       .  S
C266        C267   1.368       .  D
C267        C268   1.539       .  S
C267        C481   1.487       .  S
C268        C272   1.538       .  S
C268        C270   1.544       .  S
C268        H274   1.109       .  S
C269        H275   1.084       .  S
C269        C270   1.366       .  D
C270        C518   1.494       .  S
C271        H276   1.087       .  S
C271        C272   1.365       .  D
C272        C381   1.479       .  S
C277        C278   1.400       .  A
C277        C282   1.401       .  A
C277        H284   1.084       .  S
C278        C279   1.401       .  A
C279        C280   1.396       .  A
C279       Br286   1.918       .  S
C280        C281   1.409       .  A
C280        H285   1.083       .  S
C281        C282   1.414       .  A
C282       Br283   1.915       .  S
C287        C288   1.405       .  A
C287        C292   1.404       .  A
C287        H294   1.083       .  S
C288        C289   1.416       .  A
C289        C290   1.397       .  A
C289       Br296   1.922       .  S
C290        C291   1.402       .  A
C290        H295   1.084       .  S
C291        C292   1.412       .  A
C292       Br293   1.915       .  S
C297        C298   1.414       .  A
C297        C302   1.398       .  A
C297        H304   1.081       .  S
C298        C299   1.423       .  A
C299        C300   1.399       .  A
C299       Br306   1.920       .  S
C300        C301   1.399       .  A
C300        H305   1.085       .  S
C301        C302   1.407       .  A
C302       Br303   1.924       .  S
C307        C308   1.409       .  A
C307        C312   1.401       .  A
C307        H314   1.083       .  S
C308        C309   1.415       .  A
C309        C310   1.399       .  A
C309       Br316   1.917       .  S
C310        C311   1.399       .  A
C310        H315   1.084       .  S
C311        C312   1.404       .  A
C312       Br313   1.918       .  S
C317        C318   1.400       .  A
C317        C322   1.400       .  A
C317        H324   1.084       .  S
C318        C319   1.407       .  A
C319        C320   1.399       .  A
C319       Br326   1.918       .  S
C320        C321   1.401       .  A
C320        H325   1.084       .  S
C321        C322   1.410       .  A
C322       Br323   1.916       .  S
C327        C328   1.400       .  A
C327        C332   1.400       .  A
C327        H334   1.081       .  S
C328        C329   1.407       .  A
C329        C330   1.399       .  A
C329       Br336   1.919       .  S
C330        C331   1.404       .  A
C330        H335   1.084       .  S
C331        C332   1.409       .  A
C332       Br333   1.916       .  S
C337        C338   1.407       .  A
C337        C342   1.402       .  A
C337        H344   1.083       .  S
C338        C339   1.421       .  A
C339        C340   1.404       .  A
C339       Br346   1.921       .  S
C340        C341   1.400       .  A
C340        H345   1.084       .  S
C341        C342   1.406       .  A
C342       Br343   1.918       .  S
C347        C348   1.403       .  A
C347        C352   1.399       .  A
C347        H354   1.083       .  S
C348        C349   1.413       .  A
C349        C350   1.402       .  A
C349       Br356   1.921       .  S
C350        C351   1.401       .  A
C350        H355   1.083       .  S
C351        C352   1.406       .  A
C352       Br353   1.918       .  S
C357        C358   1.397       .  A
C357        C362   1.399       .  A
C357        H364   1.084       .  S
C358        C359   1.403       .  A
C359        C360   1.400       .  A
C359       Br366   1.918       .  S
C360        C361   1.410       .  A
C360        H365   1.083       .  S
C361        C362   1.417       .  A
C362       Br363   1.914       .  S
C367        C368   1.404       .  A
C367        C372   1.397       .  A
C367        H374   1.083       .  S
C368        C369   1.416       .  A
C369        C370   1.405       .  A
C369       Br376   1.916       .  S
C370        C371   1.405       .  A
C370        H375   1.083       .  S
C371        C372   1.420       .  A
C372       Br373   1.925       .  S
C377        C378   1.407       .  A
C377        C382   1.405       .  A
C377        H384   1.084       .  S
C378        C379   1.419       .  A
C379        C380   1.393       .  A
C379       Br386   1.924       .  S
C380        C381   1.396       .  A
C380        H385   1.084       .  S
C381        C382   1.409       .  A
C382       Br383   1.916       .  S
C387        C388   1.403       .  A
C387        C392   1.406       .  A
C387        H394   1.084       .  S
C388        C389   1.411       .  A
C389        C390   1.399       .  A
C389       Br396   1.921       .  S
C390        C391   1.405       .  A
C390        H395   1.083       .  S
C391        C392   1.416       .  A
C392       Br393   1.920       .  S
C397        C398   1.406       .  A
C397        C402   1.397       .  A
C397        H404   1.083       .  S
C398        C399   1.415       .  A
C399        C400   1.401       .  A
C399       Br406   1.921       .  S
C400        C401   1.402       .  A
C400        H405   1.082       .  S
C401        C402   1.412       .  A
C402       Br403   1.923       .  S
C407        C408   1.403       .  A
C407        C412   1.406       .  A
C407        H414   1.083       .  S
C408        C409   1.408       .  A
C409        C410   1.400       .  A
C409       Br416   1.919       .  S
C410        C411   1.407       .  A
C410        H415   1.083       .  S
C411        C412   1.414       .  A
C412       Br413   1.919       .  S
C417        C418   1.400       .  A
C417        C422   1.402       .  A
C417        H424   1.082       .  S
C418        C419   1.407       .  A
C419        C420   1.399       .  A
C419       Br426   1.920       .  S
C420        C421   1.409       .  A
C420        H425   1.083       .  S
C421        C422   1.415       .  A
C422       Br423   1.915       .  S
C427        C428   1.398       .  A
C427        C432   1.398       .  A
C427        H434   1.085       .  S
C428        C429   1.406       .  A
C429        C430   1.396       .  A
C429       Br436   1.924       .  S
C430        C431   1.414       .  A
C430        H435   1.080       .  S
C431        C432   1.422       .  A
C432       Br433   1.924       .  S
C437        C438   1.402       .  A
C437        C442   1.400       .  A
C437        H444   1.084       .  S
C438        C439   1.409       .  A
C439        C440   1.403       .  A
C439       Br446   1.922       .  S
C440        C441   1.414       .  A
C440        H445   1.076       .  S
C441        C442   1.423       .  A
C442       Br443   1.926       .  S
C447        C448   1.405       .  A
C447        C452   1.395       .  A
C447        H454   1.083       .  S
C448        C449   1.413       .  A
C449        C450   1.402       .  A
C449       Br456   1.915       .  S
C450        C451   1.401       .  A
C450        H455   1.084       .  S
C451        C452   1.407       .  A
C452       Br453   1.921       .  S
C457        C458   1.395       .  A
C457        C462   1.396       .  A
C457        H464   1.082       .  S
C458        C459   1.404       .  A
C459        C460   1.400       .  A
C459       Br466   1.917       .  S
C460        C461   1.409       .  A
C460        H465   1.083       .  S
C461        C462   1.420       .  A
C462       Br463   1.920       .  S
C467        C468   1.409       .  A
C467        C472   1.404       .  A
C467        H474   1.083       .  S
C468        C469   1.421       .  A
C469        C470   1.401       .  A
C469       Br476   1.922       .  S
C470        C471   1.398       .  A
C470        H475   1.084       .  S
C471        C472   1.407       .  A
C472       Br473   1.917       .  S
C477        C478   1.395       .  A
C477        C482   1.396       .  A
C477        H484   1.084       .  S
C478        C479   1.406       .  A
C479        C480   1.400       .  A
C479       Br486   1.919       .  S
C480        C481   1.407       .  A
C480        H485   1.083       .  S
C481        C482   1.415       .  A
C482       Br483   1.915       .  S
C487        C488   1.404       .  A
C487        C492   1.399       .  A
C487        H494   1.084       .  S
C488        C489   1.410       .  A
C489        C490   1.403       .  A
C489       Br496   1.921       .  S
C490        C491   1.416       .  A
C490        H495   1.078       .  S
C491        C492   1.420       .  A
C492       Br493   1.925       .  S
C497        C498   1.399       .  A
C497        C502   1.395       .  A
C497        H504   1.083       .  S
C498        C499   1.409       .  A
C499        C500   1.400       .  A
C499       Br506   1.923       .  S
C500        C501   1.413       .  A
C500        H505   1.074       .  S
C501        C502   1.421       .  A
C502       Br503   1.923       .  S
C507        C508   1.405       .  A
C507        C512   1.398       .  A
C507        H514   1.083       .  S
C508        C509   1.412       .  A
C509        C510   1.394       .  A
C509       Br516   1.922       .  S
C510        C511   1.403       .  A
C510        H515   1.084       .  S
C511        C512   1.406       .  A
C512       Br513   1.915       .  S
C517        C518   1.405       .  A
C517        C522   1.396       .  A
C517        H524   1.083       .  S
C518        C519   1.409       .  A
C519        C520   1.406       .  A
C519       Br526   1.918       .  S
C520        C521   1.411       .  A
C520        H525   1.083       .  S
C521        C522   1.416       .  A
C522       Br523   1.923       .  S
C527        C528   1.406       .  A
C527        C532   1.399       .  A
C527        H534   1.083       .  S
C528        C529   1.418       .  A
C529        C530   1.402       .  A
C529       Br536   1.921       .  S
C530        C531   1.401       .  A
C530        H535   1.084       .  S
C531        C532   1.406       .  A
C532       Br533   1.915       .  S
C537        C538   1.401       .  A
C537        C542   1.403       .  A
C537        H544   1.084       .  S
C538        C539   1.405       .  A
C539        C540   1.397       .  A
C539       Br546   1.916       .  S
C540        C541   1.407       .  A
C540        H545   1.083       .  S
C541        C542   1.418       .  A
C542       Br543   1.921       .  S
C547        C548   1.402       .  A
C547        C552   1.407       .  A
C547        H554   1.083       .  S
C548        C549   1.407       .  A
C549        C550   1.401       .  A
C549       Br556   1.917       .  S
C550        C551   1.412       .  A
C550        H555   1.076       .  S
C551        C552   1.425       .  A
C552       Br553   1.924       .  S
C557        C558   1.410       .  A
C557        C562   1.396       .  A
C557        H564   1.081       .  S
C558        C559   1.420       .  A
C559        C560   1.397       .  A
C559       Br566   1.921       .  S
C560        C561   1.403       .  A
C560        H565   1.083       .  S
C561        C562   1.413       .  A
C562       Br563   1.922       .  S
C567        C568   1.403       .  A
C567        C572   1.402       .  A
C567        H574   1.083       .  S
C568        C569   1.409       .  A
C569        C570   1.399       .  A
C569       Br576   1.919       .  S
C570        C571   1.401       .  A
C570        H575   1.083       .  S
C571        C572   1.408       .  A
C572       Br573   1.917       .  S
C577        C578   1.417       .  A
C577        C582   1.394       .  A
C577        H584   1.075       .  S
C578        C579   1.424       .  A
C579        C580   1.401       .  A
C579       Br586   1.920       .  S
C580        C581   1.396       .  A
C580        H585   1.084       .  S
C581        C582   1.398       .  A
C582       Br583   1.922       .  S
C587        C588   1.399       .  A
C587        C592   1.396       .  A
C587        H594   1.084       .  S
C588        C589   1.404       .  A
C589        C590   1.399       .  A
C589       Br596   1.917       .  S
C590        C591   1.407       .  A
C590        H595   1.084       .  S
C591        C592   1.417       .  A
C592       Br593   1.923       .  S
