geometry optimzed in LAMMPS
_audit_creation_date              2020-11-30 
_audit_creation_method            'lammps2cif' 
_symmetry_space_group_name_H-M    'P1' 
_symmetry_Int_Tables_number       1 
_symmetry_cell_setting            triclinic 
loop_ 
_symmetry_equiv_pos_as_xyz 
  x,y,z 
_cell_length_a                    43.7754621 
_cell_length_b                    43.52706784004895 
_cell_length_c                    43.52778140562834 
_cell_angle_alpha                 90.08861957596602 
_cell_angle_beta                  90.00010348779654 
_cell_angle_gamma                 90.0000859297139 
loop_ 
_atom_site_label 
_atom_site_type_symbol 
_atom_site_fract_x 
_atom_site_fract_y 
_atom_site_fract_z 
_atom_site_charge 
O1          O  0.00289116  0.04977590  0.08767941    -0.88100
O2          O  0.99929944  0.04805848  0.41162938    -0.88300
O3          O  0.05026515  0.08626313  0.00141558    -0.90000
O4          O  0.45135169  0.08827388  0.00129016    -0.88700
O5          O  0.41375806  0.05162678  0.00187553    -0.88300
O6          O  0.08686413  0.04859165  0.00012585    -0.89700
O7          O  0.00034355  0.08563910  0.44855153    -0.88200
O8          O  0.00127793  0.08672136  0.05016310    -0.87700
Zr9        Zr  0.00037304  0.06153736  0.00045006     2.84300
O10         O  0.46941471  0.03127219  0.46919353    -1.09700
O11         O  0.03156151  0.03045342  0.03103051    -1.10400
C12         C  0.00235872  0.07799108  0.07844978     1.05000
C13         C  0.99972220  0.07643949  0.42028794     1.04900
C14         C  0.07832294  0.07704106  0.00107771     1.07900
C15         C  0.42305108  0.07976830  0.00184528     1.05700
H16         H  0.04400852  0.04225262  0.45547280     0.31300
O17         O  0.03111631  0.02985073  0.46849818    -1.30700
H18         H  0.45768294  0.04516801  0.04502383     0.30900
O19         O  0.46980127  0.03204055  0.03191931    -1.32300
O20         O  0.99968305  0.45113554  0.41242473    -0.88100
O21         O  0.00238063  0.44979464  0.08753667    -0.89600
O22         O  0.08560305  0.99694574  0.44938830    -0.88200
O23         O  0.41305208  0.00002527  0.45093003    -0.88200
O24         O  0.41422790  0.00218294  0.05167166    -0.88000
O25         O  0.08769764  0.99851059  0.04869041    -0.87800
O26         O  0.04795823  0.41118267  0.99867094    -0.88100
O27         O  0.44867594  0.41385263  0.00297427    -0.87600
O28         O  0.08531571  0.44815481  0.99842115    -0.88700
O29         O  0.41199902  0.45146255  0.00223861    -0.87800
O30         O  0.04834024  0.99734872  0.41234078    -0.88200
O31         O  0.05133586  0.99994887  0.08654851    -0.87900
O32         O  0.45175327  0.00089559  0.08841557    -0.87600
O33         O  0.44958709  0.99992218  0.41320828    -0.88000
O34         O  0.99951272  0.41368910  0.44946078    -0.88300
O35         O  0.99808795  0.41261559  0.05027134    -0.89600
Zr36       Zr  0.99912890  0.99901355  0.43829366     2.83100
Zr37       Zr  0.00099620  0.99975376  0.06239768     2.83500
Zr38       Zr  0.06113794  0.99872896  0.99956293     2.84100
Zr39       Zr  0.43805848  0.00152723  0.00116687     2.83400
Zr40       Zr  0.99912376  0.43811683  0.00039771     2.84200
O41         O  0.46876235  0.46990681  0.03140474    -1.10200
O42         O  0.03012212  0.46876494  0.46864310    -1.09700
C43         C  0.99998058  0.42285744  0.42122706     1.05000
C44         C  0.00005215  0.42163821  0.07850474     1.04000
C45         C  0.07653701  0.99686764  0.42108235     1.05100
C46         C  0.42153562  0.99998482  0.42250287     1.05500
C47         C  0.42345931  0.00163239  0.07986273     1.05100
C48         C  0.07936144  0.99937588  0.07714480     1.04600
C49         C  0.07619177  0.41988380  0.99835133     1.05100
C50         C  0.42060318  0.42308626  0.00320816     1.04600
H51         H  0.04446002  0.45504181  0.04338049     0.31200
O52         O  0.03158424  0.46805889  0.03095085    -1.31300
H53         H  0.45564593  0.45658847  0.45688952     0.31300
O54         O  0.46850380  0.46921447  0.46976167    -1.32700
O55         O  0.00045692  0.20153538  0.16167957    -0.88100
O56         O  0.00078793  0.19916422  0.33590380    -0.88300
O57         O  0.04933909  0.16235795  0.24917792    -0.90000
O58         O  0.44989664  0.16259979  0.24950960    -0.88700
O59         O  0.41310279  0.20005248  0.25098639    -0.88300
O60         O  0.08664808  0.19924509  0.24781840    -0.89700
O61         O  0.99999752  0.16218932  0.29830767    -0.88200
O62         O  0.00189064  0.16422611  0.19884443    -0.87700
Zr63       Zr  0.00020702  0.18842891  0.24923551     2.84300
O64         O  0.46952224  0.21809872  0.28079400    -1.09700
O65         O  0.03093589  0.21914920  0.21800630    -1.10400
C66         C  0.00164985  0.17327618  0.17060283     1.05000
C67         C  0.00026147  0.17088187  0.32665714     1.04900
C68         C  0.07753076  0.17103704  0.24827558     1.07900
C69         C  0.42174521  0.17177130  0.25044100     1.05700
H70         H  0.04428489  0.20539141  0.29310997     0.31300
O71         O  0.03159987  0.21852032  0.28061093    -1.30700
H72         H  0.45614629  0.20532694  0.20573687     0.30900
O73         O  0.46879538  0.21829853  0.21847977    -1.32300
O74         O  0.00353323  0.30075429  0.33643831    -0.88100
O75         O  0.99741734  0.30110106  0.16350377    -0.89600
O76         O  0.08794108  0.24762103  0.29916819    -0.88200
O77         O  0.41354768  0.24752096  0.30022643    -0.88200
O78         O  0.41188738  0.24769361  0.20140539    -0.88000
O79         O  0.08652318  0.25026614  0.19913145    -0.87800
O80         O  0.05224605  0.33547738  0.25087105    -0.88100
O81         O  0.44965831  0.33598406  0.24975289    -0.87600
O82         O  0.08896539  0.29792758  0.25063148    -0.88700
O83         O  0.41259771  0.29878854  0.25030424    -0.87800
O84         O  0.05117936  0.24865451  0.33668921    -0.88200
O85         O  0.04925762  0.25172158  0.16211353    -0.87900
O86         O  0.44866669  0.24800057  0.16392284    -0.87600
O87         O  0.45066220  0.24756544  0.33736825    -0.88000
O88         O  0.00289634  0.33803701  0.29925021    -0.88300
O89         O  0.00121955  0.33812739  0.20096226    -0.89600
Zr90       Zr  0.00147175  0.24998593  0.31202150     2.83100
Zr91       Zr  0.99974655  0.25084810  0.18794999     2.83500
Zr92       Zr  0.06217628  0.24933674  0.24939761     2.84100
Zr93       Zr  0.43849515  0.24929635  0.25030717     2.83400
Zr94       Zr  0.00138861  0.31204666  0.25028227     2.84200
O95         O  0.46834596  0.28081434  0.21882059    -1.10200
O96         O  0.03236818  0.28084070  0.28099539    -1.09700
C97         C  0.00360399  0.32911273  0.32744320     1.05000
C98         C  0.99896305  0.32926872  0.17273997     1.07600
C99         C  0.07922433  0.24770680  0.32756229     1.05100
C100        C  0.42241526  0.24715441  0.32851855     1.05500
C101        C  0.42053558  0.24747209  0.17306186     1.05100
C102        C  0.07748954  0.25118788  0.17088471     1.04600
C103        C  0.08036764  0.32625300  0.25091410     1.05100
C104        C  0.42151632  0.32708372  0.25003927     1.04600
H105        H  0.04433700  0.29405028  0.20592760     0.31200
O106        O  0.03164720  0.28117452  0.21868687    -1.31300
H107        H  0.45631958  0.29309783  0.29441653     0.31300
O108        O  0.46906367  0.28049071  0.28140100    -1.32700
O109        O  0.33853241  0.50101597  0.20109874    -0.88100
O110        O  0.16501220  0.49901813  0.19888712    -0.88300
O111        O  0.25294814  0.44892983  0.16321986    -0.90000
O112        O  0.25072703  0.05051891  0.16399866    -0.88700
O113        O  0.24860870  0.08783567  0.20119826    -0.88300
O114        O  0.25120493  0.41181851  0.20056541    -0.89700
O115        O  0.20240316  0.49967613  0.16196729    -0.88200
O116        O  0.30184707  0.50037741  0.16342456    -0.87700
Zr117      Zr  0.25168272  0.49918191  0.18791259     2.84300
O118        O  0.21940642  0.03076485  0.21893759    -1.09700
O119        O  0.28263190  0.46864199  0.21912373    -1.10400
C120        C  0.32989319  0.50100743  0.17271741     1.05000
C121        C  0.17417399  0.49961325  0.17065550     1.04900
C122        C  0.25224128  0.42069397  0.17230771     1.07900
C123        C  0.24945447  0.07884971  0.17292340     1.05700
H124        H  0.20789145  0.45493785  0.20553286     0.31300
O125        O  0.22038532  0.46795027  0.21839248    -1.30700
H126        H  0.29378624  0.04491875  0.20720780     0.30900
O127        O  0.28104152  0.03189290  0.21975880    -1.32300
O128        O  0.16269959  0.49920440  0.29858038    -0.88100
O129        O  0.33722884  0.50072349  0.30045122    -0.89600
O130        O  0.20243889  0.41134669  0.25081233    -0.88200
O131        O  0.19903202  0.08636145  0.24906600    -0.88200
O132        O  0.29814948  0.08861354  0.25168635    -0.88000
O133        O  0.30130064  0.41351973  0.24928273    -0.87800
O134        O  0.25270178  0.44917753  0.33719520    -0.88100
O135        O  0.25088189  0.04994132  0.33809433    -0.87600
O136        O  0.25220867  0.41215805  0.29952958    -0.88700
O137        O  0.24906147  0.08707181  0.30071119    -0.87800
O138        O  0.16505021  0.44820474  0.25034964    -0.88200
O139        O  0.33822856  0.45088153  0.25002927    -0.87900
O140        O  0.33523927  0.05145276  0.25208411    -0.87600
O141        O  0.16244907  0.04869507  0.24814647    -0.88000
O142        O  0.19941846  0.49848788  0.33619611    -0.88300
O143        O  0.29989113  0.49945313  0.33741076    -0.89600
Zr144      Zr  0.18906828  0.49869978  0.24934994     2.83100
Zr145      Zr  0.31229608  0.50064132  0.25044934     2.83500
Zr146      Zr  0.25138891  0.43779902  0.24997547     2.84100
Zr147      Zr  0.24913801  0.06208888  0.25069146     2.83400
Zr148      Zr  0.25008695  0.49936017  0.31204667     2.84200
O149        O  0.28003743  0.03159659  0.28203842    -1.10200
O150        O  0.21962904  0.46790977  0.28099113    -1.09700
C151        C  0.17126305  0.49894000  0.32698208     1.05000
C152        C  0.32814041  0.49998288  0.32869239     1.07600
C153        C  0.17421369  0.41997755  0.25078398     1.05100
C154        C  0.17100151  0.07709615  0.24818378     1.05500
C155        C  0.32631920  0.07972958  0.25208416     1.05100
C156        C  0.32939386  0.42250583  0.24957015     1.04600
C157        C  0.25294740  0.42094898  0.32785247     1.05100
C158        C  0.25032800  0.07816543  0.32896495     1.04600
H159        H  0.29469338  0.45637801  0.29386970     0.31200
O160        O  0.28176132  0.46905311  0.28116377    -1.31300
H161        H  0.20509904  0.04365606  0.29407282     0.31300
O162        O  0.21816378  0.03096811  0.28146198    -1.32700
O163        O  0.20013050  0.16283926  0.50081103    -0.88100
O164        O  0.19985107  0.33711920  0.49828030    -0.88300
O165        O  0.16285073  0.24912448  0.04888731    -0.90000
O166        O  0.16308100  0.24824176  0.45023101    -0.88700
O167        O  0.20023543  0.24862547  0.41310708    -0.88300
O168        O  0.19962135  0.24951278  0.08637349    -0.89700
O169        O  0.16304523  0.29963733  0.49698893    -0.88200
O170        O  0.16288568  0.19989969  0.50160087    -0.87700
Zr171      Zr  0.18812220  0.24985357  0.50006759     2.84300
O172        O  0.21864436  0.28104266  0.46884869    -1.09700
O173        O  0.21900616  0.21853956  0.03053352    -1.10400
C174        C  0.17190779  0.17160254  0.50150992     1.05000
C175        C  0.17174993  0.32799369  0.49683964     1.04900
C176        C  0.17153248  0.24936715  0.07725206     1.07900
C177        C  0.17208956  0.24797502  0.42197168     1.05700
H178        H  0.20544572  0.29364084  0.04342126     0.31300
O179        O  0.21831877  0.28089250  0.03067596    -1.30700
H180        H  0.20630316  0.20558634  0.45641494     0.30900
O181        O  0.21893108  0.21859132  0.46914353    -1.32300
O182        O  0.29906809  0.33763204  0.49945951    -0.88100
O183        O  0.29993525  0.16280633  0.49998247    -0.89600
O184        O  0.24988323  0.29947447  0.08687237    -0.88200
O185        O  0.24918098  0.29917254  0.41243451    -0.88200
O186        O  0.25029986  0.20039442  0.41282893    -0.88000
O187        O  0.24851924  0.20046662  0.08715300    -0.87800
O188        O  0.33603200  0.25084878  0.05055904    -0.88100
O189        O  0.33635301  0.24998711  0.45025982    -0.87600
O190        O  0.29872259  0.24981380  0.08750136    -0.88700
O191        O  0.29944977  0.24993739  0.41286822    -0.87800
O192        O  0.25161012  0.33693682  0.04987292    -0.88200
O193        O  0.24968636  0.16305007  0.05004524    -0.87900
O194        O  0.25143630  0.16313500  0.45010541    -0.87600
O195        O  0.25184965  0.33669004  0.44948159    -0.88000
O196        O  0.33612005  0.30038222  0.49979242    -0.88300
O197        O  0.33681865  0.20022555  0.49943914    -0.89600
Zr198      Zr  0.24969086  0.31195005  0.49981057     2.83100
Zr199      Zr  0.24999174  0.18794803  0.50025798     2.83500
Zr200      Zr  0.24941059  0.24991423  0.06149059     2.84100
Zr201      Zr  0.24979882  0.24983370  0.43837182     2.83400
Zr202      Zr  0.31139071  0.25010190  0.50039291     2.84200
O203        O  0.28081123  0.21891321  0.46925127    -1.10200
O204        O  0.28027344  0.28138561  0.03112126    -1.09700
C205        C  0.32722262  0.32872315  0.49940251     1.05000
C206        C  0.32810173  0.17183519  0.49955081     1.07600
C207        C  0.25121772  0.32772111  0.07807210     1.05100
C208        C  0.25098635  0.32742923  0.42125123     1.05500
C209        C  0.25115574  0.17220913  0.42186247     1.05100
C210        C  0.24884283  0.17214947  0.07833187     1.04600
C211        C  0.32695410  0.25015436  0.07883301     1.05100
C212        C  0.32760223  0.24982112  0.42188053     1.04600
H213        H  0.29368315  0.20647430  0.04400969     0.31200
O214        O  0.28097497  0.21912992  0.03105240    -1.31300
H215        H  0.29351848  0.29362601  0.45621223     0.31300
O216        O  0.28074726  0.28095109  0.46908062    -1.32700
C217        C  0.24359806  0.13379670  0.15634791    -0.15000
C218        C  0.24898989  0.10282780  0.14881389     0.07200
C219        C  0.25390463  0.09490627  0.11789256    -0.15000
C220        C  0.25361599  0.11735398  0.09505851    -0.15000
C221        C  0.24846200  0.14831774  0.10256048     0.07200
C222        C  0.24332374  0.15628427  0.13347516    -0.15000
H223        H  0.23950932  0.14070409  0.17990586     0.11200
H224        H  0.25820887  0.07131530  0.11125388     0.11200
H225        H  0.25774838  0.11040943  0.07152315     0.11200
H226        H  0.23906163  0.17990465  0.14005646     0.11200
C227        C  0.23976392  0.36765491  0.15424037    -0.15000
C228        C  0.25254395  0.39666688  0.14843432     0.07200
C229        C  0.26546921  0.40263481  0.11952115    -0.15000
C230        C  0.26528649  0.38013381  0.09666318    -0.15000
C231        C  0.25210870  0.35129969  0.10232429     0.07200
C232        C  0.23957102  0.34516278  0.13138370    -0.15000
H233        H  0.22945534  0.36252704  0.17626921     0.11200
H234        H  0.27588222  0.42466538  0.11463343     0.11200
H235        H  0.27556717  0.38523882  0.07461683     0.11200
H236        H  0.22911613  0.32314863  0.13627847     0.11200
C237        C  0.27135251  0.39988484  0.37802005    -0.15000
C238        C  0.25365154  0.39661063  0.35131212     0.07200
C239        C  0.23610022  0.36992458  0.34721323    -0.15000
C240        C  0.23544468  0.34729259  0.36988950    -0.15000
C241        C  0.25237851  0.35096425  0.39702663     0.07200
C242        C  0.27073366  0.37718105  0.40072500    -0.15000
H243        H  0.28562555  0.41996127  0.38127407     0.11200
H244        H  0.22226060  0.36695620  0.32678692     0.11200
H245        H  0.22116215  0.32723819  0.36653824     0.11200
H246        H  0.28460964  0.38004373  0.42114013     0.11200
C247        C  0.23595133  0.13033669  0.34758068    -0.15000
C248        C  0.25102245  0.10232408  0.35264947     0.07200
C249        C  0.26674318  0.09770198  0.38038456    -0.15000
C250        C  0.26702905  0.12061439  0.40285957    -0.15000
C251        C  0.25158579  0.14842139  0.39791777     0.07200
C252        C  0.23622811  0.15321447  0.37003442    -0.15000
H253        H  0.22350586  0.13432945  0.32644872     0.11200
H254        H  0.27897576  0.07648144  0.38456202     0.11200
H255        H  0.27943923  0.11668925  0.42402821     0.11200
H256        H  0.22395253  0.17441528  0.36584808     0.11200
C257        C  0.36631391  0.15698571  0.24901965    -0.15000
C258        C  0.39726980  0.14828350  0.25095020     0.07200
C259        C  0.40448968  0.11701209  0.25363035    -0.15000
C260        C  0.38140855  0.09494153  0.25429110    -0.15000
C261        C  0.35049208  0.10354431  0.25219207     0.07200
C262        C  0.34318822  0.13486958  0.24964600    -0.15000
H263        H  0.35987036  0.18091000  0.24688366     0.11200
H264        H  0.42801289  0.10950811  0.25532182     0.11200
H265        H  0.38791802  0.07103844  0.25639034     0.11200
H266        H  0.31964828  0.14232738  0.24791666     0.11200
C267        C  0.36683060  0.34399361  0.24621870    -0.15000
C268        C  0.39782741  0.35136143  0.25014827     0.07200
C269        C  0.40612783  0.38235072  0.25404677    -0.15000
C270        C  0.38402718  0.40547093  0.25376410    -0.15000
C271        C  0.35305704  0.39815447  0.24962232     0.07200
C272        C  0.34472643  0.36711630  0.24592840    -0.15000
H273        H  0.35961390  0.32038866  0.24313962     0.11200
H274        H  0.42977406  0.38884188  0.25740726     0.11200
H275        H  0.39123923  0.42906030  0.25693950     0.11200
H276        H  0.32107157  0.36059361  0.24268561     0.11200
C277        C  0.13213348  0.15466183  0.24348427    -0.15000
C278        C  0.10128023  0.14685526  0.24780739     0.07200
C279        C  0.09344392  0.11577912  0.25172791    -0.15000
C280        C  0.11599172  0.09307029  0.25151291    -0.15000
C281        C  0.14688816  0.10094572  0.24747716     0.07200
C282        C  0.15464276  0.13199330  0.24328564    -0.15000
H283        H  0.13899170  0.17833778  0.24022029     0.11200
H284        H  0.06990536  0.10895957  0.25520010     0.11200
H285        H  0.10921385  0.06938594  0.25487812     0.11200
H286        H  0.17817237  0.13887669  0.23988375     0.11200
C287        C  0.09684798  0.38119015  0.25384195    -0.15000
C288        C  0.10459080  0.35000989  0.25107434     0.07200
C289        C  0.13560315  0.34190267  0.24821920    -0.15000
C290        C  0.15827511  0.36453144  0.24821746    -0.15000
C291        C  0.15043175  0.39575197  0.25104751     0.07200
C292        C  0.11944827  0.40374853  0.25383286    -0.15000
H293        H  0.07324353  0.38828688  0.25607619     0.11200
H294        H  0.14240512  0.31809531  0.24583338     0.11200
H295        H  0.18190225  0.35754635  0.24582333     0.11200
H296        H  0.11253402  0.42753145  0.25606582     0.11200
C297        C  0.36534845  0.24460898  0.15699393    -0.15000
C298        C  0.39643792  0.24706202  0.14911533     0.07200
C299        C  0.40435408  0.25014475  0.11799294    -0.15000
C300        C  0.38184548  0.25130906  0.09533173    -0.15000
C301        C  0.35075718  0.24923872  0.10312704     0.07200
C302        C  0.34277234  0.24574124  0.13426078    -0.15000
H303        H  0.35839633  0.24201699  0.18072846     0.11200
H304        H  0.42802423  0.25208645  0.11104049     0.11200
H305        H  0.38890321  0.25397221  0.07164397     0.11200
H306        H  0.31906898  0.24385062  0.14112259     0.11200
C307        C  0.13253403  0.25278535  0.15494124    -0.15000
C308        C  0.10145933  0.25144051  0.14680352     0.07200
C309        C  0.09365015  0.24972512  0.11551804    -0.15000
C310        C  0.11635845  0.24891847  0.09297246    -0.15000
C311        C  0.14742885  0.24993623  0.10115355     0.07200
C312        C  0.15521930  0.25199909  0.13241813    -0.15000
H313        H  0.13943887  0.25432720  0.17878340     0.11200
H314        H  0.06997258  0.24871167  0.10838907     0.11200
H315        H  0.10949662  0.24741809  0.06911555     0.11200
H316        H  0.17888650  0.25303935  0.13958800     0.11200
C317        C  0.13372172  0.24081219  0.34423630    -0.15000
C318        C  0.10304233  0.24676386  0.35168276     0.07200
C319        C  0.09521337  0.25212506  0.38256556    -0.15000
C320        C  0.11756482  0.25217361  0.40537224    -0.15000
C321        C  0.14831767  0.24687247  0.39787244     0.07200
C322        C  0.15612459  0.24085883  0.36709938    -0.15000
H323        H  0.14046939  0.23620670  0.32074034     0.11200
H324        H  0.07180881  0.25676753  0.38916019     0.11200
H325        H  0.11074849  0.25686374  0.42883417     0.11200
H326        H  0.17957328  0.23626588  0.36062049     0.11200
C327        C  0.40570284  0.24989118  0.38375364    -0.15000
C328        C  0.39819418  0.24687714  0.35249919     0.07200
C329        C  0.36714485  0.24464967  0.34427923    -0.15000
C330        C  0.34424821  0.24585897  0.36667437    -0.15000
C331        C  0.35178703  0.24913598  0.39791790     0.07200
C332        C  0.38281607  0.25109553  0.40613902    -0.15000
H333        H  0.42930430  0.25168999  0.39097874     0.11200
H334        H  0.36043116  0.24213467  0.32046286     0.11200
H335        H  0.32063733  0.24410144  0.35945468     0.11200
H336        H  0.38952932  0.25364321  0.42994936     0.11200
C337        C  0.40356118  0.36872620  0.01172308    -0.15000
C338        C  0.39642353  0.39927198  0.00411717     0.07200
C339        C  0.36608086  0.40666529  0.99651723    -0.15000
C340        C  0.34355039  0.38393080  0.99587330    -0.15000
C341        C  0.35081279  0.35327207  0.00286993     0.07200
C342        C  0.38103121  0.34599167  0.01107824    -0.15000
H343        H  0.42661779  0.36231817  0.01807025     0.11200
H344        H  0.35980379  0.42994692  0.99045815     0.11200
H345        H  0.32052138  0.39032984  0.98942532     0.11200
H346        H  0.38732603  0.32268529  0.01702875     0.11200
C347        C  0.40697173  0.13502057  0.99803901    -0.15000
C348        C  0.39928403  0.10398167  0.00241438     0.07200
C349        C  0.36844292  0.09612534  0.00691243    -0.15000
C350        C  0.34578112  0.11863128  0.00648294    -0.15000
C351        C  0.35334651  0.14958458  0.00155417     0.07200
C352        C  0.38425575  0.15758256  0.99761956    -0.15000
H353        H  0.43049485  0.14188259  0.99454826     0.11200
H354        H  0.36169121  0.07249651  0.01068897     0.11200
H355        H  0.32228513  0.11169162  0.01000307     0.11200
H356        H  0.39092341  0.18124197  0.99387533     0.11200
C357        C  0.09335126  0.36528518  0.98997819    -0.15000
C358        C  0.10014049  0.39578532  0.99823178     0.07200
C359        C  0.13028342  0.40326371  0.00649744    -0.15000
C360        C  0.15316064  0.38094400  0.00634822    -0.15000
C361        C  0.14650460  0.35051241  0.99799227     0.07200
C362        C  0.11630882  0.34288817  0.98982150    -0.15000
H363        H  0.07038647  0.35878421  0.98337253     0.11200
H364        H  0.13623122  0.42642524  0.01337171     0.11200
H365        H  0.17605259  0.38752724  0.01311278     0.11200
H366        H  0.11042659  0.31965237  0.98312849     0.11200
C367        C  0.13329129  0.09321233  0.99671500    -0.15000
C368        C  0.10250218  0.10099852  0.00167743     0.07200
C369        C  0.09502263  0.13199886  0.00698660    -0.15000
C370        C  0.11769252  0.15463542  0.00696010    -0.15000
C371        C  0.14845378  0.14687882  0.00163191     0.07200
C372        C  0.15597013  0.11585422  0.99671254    -0.15000
H373        H  0.13990609  0.06961038  0.99248859     0.11200
H374        H  0.07160443  0.13885655  0.01116181     0.11200
H375        H  0.11105685  0.17824730  0.01112507     0.11200
H376        H  0.17938396  0.10903886  0.99246985     0.11200
C377        C  0.40494089  0.00106044  0.36738702    -0.15000
C378        C  0.39727091  0.00009893  0.39872632     0.07200
C379        C  0.36621344  0.99955197  0.40705433    -0.15000
C380        C  0.34341523  0.00021287  0.38459248    -0.15000
C381        C  0.35113027  0.00138245  0.35327505     0.07200
C382        C  0.38218195  0.00173369  0.34496423    -0.15000
H383        H  0.42858376  0.00142137  0.36007821     0.11200
H384        H  0.35944019  0.99867468  0.43096255     0.11200
H385        H  0.31974955  0.99975201  0.39182132     0.11200
H386        H  0.38902633  0.00250150  0.32106949     0.11200
C387        C  0.13142926  0.99501939  0.40477476    -0.15000
C388        C  0.10037299  0.99681006  0.39681309     0.07200
C389        C  0.09250143  0.99938793  0.36555931    -0.15000
C390        C  0.11518947  0.00029781  0.34291101    -0.15000
C391        C  0.14629087  0.99857739  0.35097049     0.07200
C392        C  0.15405050  0.99595321  0.38219598    -0.15000
H393        H  0.13839341  0.99299224  0.42855531     0.11200
H394        H  0.06881575  0.00094732  0.35854811     0.11200
H395        H  0.10832271  0.00242464  0.31910716     0.11200
H396        H  0.17770437  0.99451077  0.38931737     0.11200
C397        C  0.09639352  0.00402475  0.13196854    -0.15000
C398        C  0.10378075  0.99988177  0.10081736     0.07200
C399        C  0.13470729  0.99651848  0.09259242    -0.15000
C400        C  0.15761078  0.99704883  0.11502982    -0.15000
C401        C  0.15011601  0.00086769  0.14623537     0.07200
C402        C  0.11923310  0.00455045  0.15434248    -0.15000
H403        H  0.07289331  0.00694145  0.13917297     0.11200
H404        H  0.14126882  0.99330607  0.06881597     0.11200
H405        H  0.18114462  0.99415434  0.10792438     0.11200
H406        H  0.11258121  0.00781612  0.17808475     0.11200
C407        C  0.36849729  0.00193544  0.09598027    -0.15000
C408        C  0.39960254  0.00184641  0.10408120     0.07200
C409        C  0.40748758  0.00178054  0.13540624    -0.15000
C410        C  0.38479250  0.00158329  0.15803094    -0.15000
C411        C  0.35368983  0.00141907  0.14984402     0.07200
C412        C  0.34587244  0.00170798  0.11853603    -0.15000
H413        H  0.36149463  0.00205931  0.07212110     0.11200
H414        H  0.43119736  0.00180725  0.14250035     0.11200
H415        H  0.39166878  0.00147086  0.18192818     0.11200
H416        H  0.32219601  0.00170713  0.11132733     0.11200
C417        C  0.99778152  0.13158799  0.40415020    -0.15000
C418        C  0.99962841  0.10036962  0.39606533     0.07200
C419        C  0.49283116  0.09422643  0.36724943    -0.15000
C420        C  0.49357120  0.11639570  0.34415531    -0.15000
C421        C  0.00001694  0.14652724  0.35039997     0.07200
C422        C  0.99799933  0.15434232  0.38164104    -0.15000
H423        H  0.99614248  0.13857587  0.42797709     0.11200
H424        H  0.48772548  0.07070483  0.36093834     0.11200
H425        H  0.48890348  0.10941615  0.32072814     0.11200
H426        H  0.99651774  0.17812286  0.38882672     0.11200
C427        C  0.00887577  0.36867215  0.40462222    -0.15000
C428        C  0.00134648  0.39909775  0.39705870     0.07200
C429        C  0.50512364  0.40516556  0.36721561    -0.15000
C430        C  0.50509515  0.38245688  0.34453230    -0.15000
C431        C  0.00391351  0.35339171  0.35119505     0.07200
C432        C  0.01018872  0.34608042  0.38193644    -0.15000
H433        H  0.01386317  0.36225676  0.42812078     0.11200
H434        H  0.50800137  0.42888356  0.36032238     0.11200
H435        H  0.50796771  0.38933822  0.32081001     0.11200
H436        H  0.01599154  0.32282728  0.38854479     0.11200
C437        C  0.01874460  0.40080471  0.12829352    -0.15000
C438        C  0.99962227  0.39797640  0.10255621     0.07200
C439        C  0.50780622  0.40517408  0.13281603    -0.15000
C440        C  0.50751066  0.38219131  0.15516472    -0.15000
C441        C  0.99857029  0.35323625  0.14902359     0.07200
C442        C  0.01820290  0.37860102  0.15138754    -0.15000
H443        H  0.03439585  0.41998571  0.13030179     0.11200
H444        H  0.51480786  0.42813779  0.13934567     0.11200
H445        H  0.51432935  0.38804756  0.17836215     0.11200
H446        H  0.03354553  0.38089211  0.17078858     0.11200
C447        C  0.99090988  0.13167373  0.09509480    -0.15000
C448        C  0.00267737  0.10241976  0.10195815     0.07200
C449        C  0.51926434  0.13121485  0.09559929    -0.15000
C450        C  0.51870231  0.15417202  0.11808765    -0.15000
C451        C  0.00261208  0.14921785  0.14673154     0.07200
C452        C  0.99091900  0.15487185  0.11725062    -0.15000
H453        H  0.98125837  0.13651670  0.07270407     0.11200
H454        H  0.53042589  0.13578295  0.07386519     0.11200
H455        H  0.52951877  0.17605181  0.11337935     0.11200
H456        H  0.98124835  0.17703390  0.11148981     0.11200
O457        O  0.00140686  0.05080703  0.58660443    -0.88100
O458        O  0.99906074  0.04981639  0.91351966    -0.88300
O459        O  0.05094879  0.08560062  0.49985351    -0.90000
O460        O  0.45086183  0.08713289  0.50017549    -0.88700
O461        O  0.41392216  0.04978450  0.50027025    -0.88300
O462        O  0.08770428  0.04804241  0.50079921    -0.89700
O463        O  0.00033863  0.08700249  0.95085878    -0.88200
O464        O  0.99953931  0.08777998  0.54909968    -0.87700
Zr465      Zr  0.00070809  0.06168125  0.49923149     2.84300
O466        O  0.46865799  0.03185691  0.96935754    -1.09700
O467        O  0.03140689  0.03081478  0.53058979    -1.10400
C468        C  0.00030302  0.07901375  0.57749447     1.05000
C469        C  0.99973580  0.07810822  0.92255495     1.04900
C470        C  0.07902775  0.07646801  0.50061807     1.07900
C471        C  0.42268513  0.07814019  0.50018757     1.05700
H472        H  0.04340849  0.04294091  0.95590077     0.31300
O473        O  0.03058123  0.03035523  0.96881302    -1.30700
H474        H  0.45758076  0.04337077  0.54424616     0.30900
O475        O  0.47026039  0.03070294  0.53123963    -1.32300
O476        O  0.99773893  0.45157172  0.91282340    -0.88100
O477        O  0.99707826  0.45042990  0.58733919    -0.89600
O478        O  0.08562289  0.99733985  0.94960452    -0.88200
O479        O  0.41253547  0.00200628  0.95120679    -0.88200
O480        O  0.41473392  0.99999370  0.55063646    -0.88000
O481        O  0.08622011  0.99762781  0.55049359    -0.87800
O482        O  0.04869826  0.41204220  0.49798198    -0.88100
O483        O  0.44921962  0.41337994  0.49883523    -0.87600
O484        O  0.08582962  0.44920969  0.49795048    -0.88700
O485        O  0.41255201  0.45098515  0.50055516    -0.87800
O486        O  0.04835065  0.99741240  0.91256357    -0.88200
O487        O  0.04931193  0.00038402  0.58780917    -0.87900
O488        O  0.45195717  0.99925831  0.58768843    -0.87600
O489        O  0.44919141  0.00123731  0.91357104    -0.88000
O490        O  0.99816162  0.41425686  0.94995002    -0.88300
O491        O  0.99862634  0.41301789  0.55011324    -0.89600
Zr492      Zr  0.99860712  0.99975405  0.93840395     2.83100
Zr493      Zr  0.00009328  0.00064638  0.56183754     2.83500
Zr494      Zr  0.06142334  0.99852703  0.49997122     2.84100
Zr495      Zr  0.43915371  0.99989927  0.50032479     2.83400
Zr496      Zr  0.99920018  0.43807793  0.49986962     2.84200
O497        O  0.46885911  0.46885381  0.53183072    -1.10200
O498        O  0.02952908  0.46876083  0.96854465    -1.09700
C499        C  0.99787217  0.42332497  0.92172030     1.05000
C500        C  0.99739702  0.42213799  0.57839659     1.04000
C501        C  0.07661491  0.99687892  0.92137391     1.05100
C502        C  0.42119106  0.00187655  0.92277319     1.05500
C503        C  0.42370035  0.99979325  0.57893060     1.05100
C504        C  0.07740513  0.99875289  0.57888048     1.04600
C505        C  0.07691005  0.42093127  0.49729888     1.05100
C506        C  0.42114565  0.42258841  0.49931743     1.04600
H507        H  0.04328350  0.45542480  0.54364884     0.31200
O508        O  0.03069107  0.46844055  0.53092619    -1.31300
H509        H  0.45473385  0.45583521  0.95646008     0.31300
O510        O  0.46771894  0.46875610  0.96891810    -1.32700
O511        O  0.99621463  0.20055162  0.66345466    -0.88100
O512        O  0.00048618  0.20064770  0.83777023    -0.88300
O513        O  0.04950396  0.16409758  0.74756167    -0.90000
O514        O  0.44903514  0.16400248  0.75306836    -0.88700
O515        O  0.41236021  0.20157446  0.75234471    -0.88300
O516        O  0.08649680  0.20136081  0.74679087    -0.89700
O517        O  0.00017917  0.16338512  0.80045270    -0.88200
O518        O  0.99826697  0.16324218  0.70065694    -0.87700
Zr519      Zr  0.99925712  0.18870559  0.75055798     2.84300
O520        O  0.46888733  0.21958719  0.78212759    -1.09700
O521        O  0.02962471  0.21958432  0.71905800    -1.10400
C522        C  0.99698902  0.17222325  0.67238760     1.05000
C523        C  0.00039483  0.17231872  0.82879207     1.04900
C524        C  0.07769269  0.17303174  0.74630387     1.07900
C525        C  0.42091469  0.17321946  0.75312602     1.05700
H526        H  0.04370655  0.20660981  0.79373561     0.31300
O527        O  0.03066666  0.21947070  0.78131981    -1.30700
H528        H  0.45530036  0.20632535  0.70734093     0.30900
O529        O  0.46836427  0.21912499  0.71983011    -1.32300
O530        O  0.00002731  0.30085767  0.83754304    -0.88100
O531        O  0.99900686  0.30107683  0.66396001    -0.89600
O532        O  0.08699353  0.25011198  0.79874792    -0.88200
O533        O  0.41344139  0.25019743  0.80066427    -0.88200
O534        O  0.41240341  0.25088639  0.70158060    -0.88000
O535        O  0.08517424  0.25058499  0.69963590    -0.87800
O536        O  0.04851322  0.33822187  0.75104304    -0.88100
O537        O  0.44982163  0.33773324  0.75176386    -0.87600
O538        O  0.08530710  0.30075906  0.75052013    -0.88700
O539        O  0.41297642  0.30029226  0.75128839    -0.87800
O540        O  0.05049013  0.25091864  0.83651039    -0.88200
O541        O  0.04801208  0.24887673  0.66258345    -0.87900
O542        O  0.44904899  0.25057315  0.66395505    -0.87600
O543        O  0.45050254  0.24926136  0.83784792    -0.88000
O544        O  0.99920232  0.33800593  0.80024896    -0.88300
O545        O  0.99740028  0.33846289  0.70121961    -0.89600
Zr546      Zr  0.00011123  0.25067368  0.81264103     2.83100
Zr547      Zr  0.99850979  0.25073132  0.68868361     2.83500
Zr548      Zr  0.06057765  0.25076191  0.74967834     2.84100
Zr549      Zr  0.43841560  0.25076997  0.75102396     2.83400
Zr550      Zr  0.99900936  0.31265490  0.75069090     2.84200
O551        O  0.46898251  0.28147384  0.71970047    -1.10200
O552        O  0.03043916  0.28186697  0.78135047    -1.09700
C553        C  0.99952185  0.32913430  0.82850185     1.05000
C554        C  0.99802703  0.32939301  0.67297177     1.07600
C555        C  0.07852260  0.25037142  0.82715819     1.05100
C556        C  0.42230622  0.24949083  0.82890481     1.05500
C557        C  0.42094087  0.25080977  0.67317322     1.05100
C558        C  0.07625813  0.24946825  0.67138327     1.04600
C559        C  0.07661185  0.32910412  0.75088432     1.05100
C560        C  0.42165766  0.32861786  0.75175937     1.04600
H561        H  0.04238822  0.29488801  0.70610996     0.31200
O562        O  0.02976920  0.28207621  0.71900752    -1.31300
H563        H  0.45658801  0.29471207  0.79513915     0.31300
O564        O  0.46917197  0.28194224  0.78212521    -1.32700
O565        O  0.33796681  0.50041781  0.70248047    -0.88100
O566        O  0.16357990  0.49961338  0.69879594    -0.88300
O567        O  0.25457743  0.44993324  0.66248958    -0.90000
O568        O  0.24903892  0.05074177  0.66392512    -0.88700
O569        O  0.24984800  0.08802042  0.70120849    -0.88300
O570        O  0.25362097  0.41297407  0.69996389    -0.89700
O571        O  0.20087757  0.49849787  0.66180683    -0.88200
O572        O  0.30149434  0.50069414  0.66465699    -0.87700
Zr573      Zr  0.25060346  0.49969760  0.68783840     2.84300
O574        O  0.21872720  0.03107386  0.71923361    -1.09700
O575        O  0.28093022  0.46896096  0.71949669    -1.10400
C576        C  0.32954853  0.50069560  0.67406256     1.05000
C577        C  0.17259407  0.49898021  0.67059722     1.04900
C578        C  0.25529209  0.42171755  0.67166586     1.07900
C579        C  0.24934293  0.07904302  0.67293509     1.05700
H580        H  0.20679526  0.45541987  0.70478128     0.31300
O581        O  0.21906707  0.46839460  0.71789548    -1.30700
H582        H  0.29341074  0.04498927  0.70677301     0.30900
O583        O  0.28075312  0.03196035  0.71940884    -1.32300
O584        O  0.16128750  0.49933283  0.79776781    -0.88100
O585        O  0.33517692  0.50138233  0.80089407    -0.89600
O586        O  0.19986106  0.41234987  0.74821168    -0.88200
O587        O  0.19958409  0.08741121  0.74779696    -0.88200
O588        O  0.29809078  0.08867133  0.75233811    -0.88000
O589        O  0.29872011  0.41233368  0.75188068    -0.87800
O590        O  0.24697184  0.45022491  0.83711152    -0.88100
O591        O  0.24988729  0.04986737  0.83764666    -0.87600
O592        O  0.24731994  0.41297721  0.79980834    -0.88700
O593        O  0.24750824  0.08708459  0.80042388    -0.87800
O594        O  0.16304037  0.44978342  0.74832173    -0.88200
O595        O  0.33546487  0.44991033  0.75247444    -0.87900
O596        O  0.33534881  0.05168999  0.75103466    -0.87600
O597        O  0.16277270  0.04998221  0.74826736    -0.88000
O598        O  0.19768847  0.49952044  0.83561982    -0.88300
O599        O  0.29785276  0.50044197  0.83781966    -0.89600
Zr600      Zr  0.18796647  0.49961315  0.74871636     2.83100
Zr601      Zr  0.31078192  0.50037803  0.75108292     2.83500
Zr602      Zr  0.24944756  0.43795097  0.74984109     2.84100
Zr603      Zr  0.24912173  0.06214371  0.75058749     2.83400
Zr604      Zr  0.24814082  0.49987360  0.81184091     2.84200
O605        O  0.28027801  0.03152458  0.78161165    -1.10200
O606        O  0.21788346  0.46857692  0.78047350    -1.09700
C607        C  0.16966039  0.49948567  0.82622194     1.05000
C608        C  0.32613205  0.50109926  0.82907336     1.07600
C609        C  0.17173546  0.42145148  0.74821157     1.05100
C610        C  0.17147416  0.07841127  0.74719071     1.05500
C611        C  0.32630469  0.07995477  0.75202689     1.05100
C612        C  0.32677707  0.42147709  0.75262098     1.04600
C613        C  0.24684992  0.42195186  0.82811578     1.05100
C614        C  0.24859434  0.07808449  0.82862921     1.04600
H615        H  0.29222591  0.45624321  0.79469694     0.31200
O616        O  0.27975047  0.46894627  0.78155812    -1.31300
H617        H  0.20528940  0.04376577  0.79448688     0.31300
O618        O  0.21832520  0.03113989  0.78178425    -1.32700
O619        O  0.20070454  0.16229907  0.00078228    -0.88100
O620        O  0.19893086  0.33618104  0.99937957    -0.88300
O621        O  0.16247413  0.25085339  0.54972705    -0.90000
O622        O  0.16365085  0.24907472  0.94901413    -0.88700
O623        O  0.20080616  0.25017810  0.91195062    -0.88300
O624        O  0.19928544  0.25080335  0.58717387    -0.89700
O625        O  0.16231775  0.29848882  0.99774636    -0.88200
O626        O  0.16338527  0.19928674  0.00025606    -0.87700
Zr627      Zr  0.18833275  0.24925887  0.99920355     2.84300
O628        O  0.21881681  0.28084691  0.96850742    -1.09700
O629        O  0.21861132  0.21864887  0.53116081    -1.10400
C630        C  0.17242973  0.17103654  0.00089044     1.05000
C631        C  0.17085462  0.32686574  0.99829537     1.04900
C632        C  0.17112626  0.25084108  0.57810781     1.07900
C633        C  0.17261733  0.24960641  0.92072847     1.05700
H634        H  0.20582814  0.29451464  0.54392826     0.31300
O635        O  0.21846258  0.28148721  0.53121518    -1.30700
H636        H  0.20672338  0.20537436  0.95562647     0.30900
O637        O  0.21936611  0.21830300  0.96842062    -1.32300
O638        O  0.29883613  0.33771994  0.00059374    -0.88100
O639        O  0.30100963  0.16400753  0.00049108    -0.89600
O640        O  0.25271475  0.29928794  0.58732760    -0.88200
O641        O  0.24964078  0.29985306  0.91287545    -0.88200
O642        O  0.24947314  0.20026094  0.91256333    -0.88000
O643        O  0.24857880  0.20028276  0.58722022    -0.87800
O644        O  0.33551392  0.25095163  0.55109801    -0.88100
O645        O  0.33637012  0.25046199  0.95013687    -0.87600
O646        O  0.29836450  0.24937649  0.58822110    -0.88700
O647        O  0.29961910  0.24953253  0.91259531    -0.87800
O648        O  0.25343465  0.33645205  0.55005789    -0.88200
O649        O  0.24919999  0.16277133  0.55017090    -0.87900
O650        O  0.25098483  0.16304270  0.94985867    -0.87600
O651        O  0.24950305  0.33715528  0.95012806    -0.88000
O652        O  0.33620306  0.30080298  0.00166060    -0.88300
O653        O  0.33768809  0.20165829  0.00033360    -0.89600
Zr654      Zr  0.24935263  0.31191993  0.99986384     2.83100
Zr655      Zr  0.25047890  0.18794501  0.99987893     2.83500
Zr656      Zr  0.24923498  0.24994958  0.56194080     2.84100
Zr657      Zr  0.25010716  0.24995640  0.93794170     2.83400
Zr658      Zr  0.31142610  0.25073423  0.00020940     2.84200
O659        O  0.28123942  0.21917577  0.96893563    -1.10200
O660        O  0.28019856  0.28094821  0.53107372    -1.09700
C661        C  0.32706419  0.32903125  0.00161990     1.05000
C662        C  0.32910486  0.17329467  0.00066532     1.07600
C663        C  0.25433957  0.32745325  0.57833315     1.05100
C664        C  0.24940564  0.32815409  0.92184563     1.05500
C665        C  0.25009199  0.17204204  0.92160868     1.05100
C666        C  0.24877319  0.17196028  0.57841508     1.04600
C667        C  0.32654923  0.25026468  0.57943417     1.05100
C668        C  0.32768531  0.24986642  0.92175922     1.04600
H669        H  0.29341077  0.20612376  0.54431733     0.31200
O670        O  0.28071538  0.21889502  0.53145777    -1.31300
H671        H  0.29348938  0.29435355  0.95609358     0.31300
O672        O  0.28076121  0.28146169  0.96880046    -1.32700
C673        C  0.25656252  0.13357223  0.65598720    -0.15000
C674        C  0.24912348  0.10295944  0.64889662     0.07200
C675        C  0.24148891  0.09529125  0.61848151    -0.15000
C676        C  0.24131743  0.11768562  0.59561431    -0.15000
C677        C  0.24876167  0.14826663  0.60265970     0.07200
C678        C  0.25638108  0.15599367  0.63309397    -0.15000
H679        H  0.26278719  0.14018103  0.67915622     0.11200
H680        H  0.23541750  0.07196382  0.61231713     0.11200
H681        H  0.23513312  0.11105248  0.57244344     0.11200
H682        H  0.26250613  0.17932674  0.63920149     0.11200
C683        C  0.26238798  0.40495277  0.61694793    -0.15000
C684        C  0.25761990  0.39740110  0.64797097     0.07200
C685        C  0.25403966  0.36634900  0.65606740    -0.15000
C686        C  0.25376413  0.34355227  0.63353891    -0.15000
C687        C  0.25705984  0.35128289  0.60237401     0.07200
C688        C  0.26214816  0.38212564  0.59439953    -0.15000
H689        H  0.26576371  0.42857773  0.60996774     0.11200
H690        H  0.25060772  0.35964460  0.67976554     0.11200
H691        H  0.25014727  0.31996714  0.64054816     0.11200
H692        H  0.26539527  0.38876926  0.57065612     0.11200
C693        C  0.25062414  0.40598166  0.88321666    -0.15000
C694        C  0.24675675  0.39799256  0.85215045     0.07200
C695        C  0.24369884  0.36683411  0.84423108    -0.15000
C696        C  0.24474483  0.34416627  0.86682088    -0.15000
C697        C  0.24876091  0.35214561  0.89786150     0.07200
C698        C  0.25167596  0.38331863  0.90580077    -0.15000
H699        H  0.25318467  0.42975266  0.89013293     0.11200
H700        H  0.24056146  0.35988057  0.82054199     0.11200
H701        H  0.24225743  0.32038581  0.85991261     0.11200
H702        H  0.25489045  0.39028178  0.92947802     0.11200
C703        C  0.26056094  0.09586142  0.88168165    -0.15000
C704        C  0.24849607  0.10203697  0.85246994     0.07200
C705        C  0.23679388  0.13139858  0.84611497    -0.15000
C706        C  0.23732194  0.15424854  0.86859039    -0.15000
C707        C  0.24954416  0.14807345  0.89777212     0.07200
C708        C  0.26107885  0.11867969  0.90413005    -0.15000
H709        H  0.27002393  0.07351356  0.88706121     0.11200
H710        H  0.22706615  0.13664733  0.82384881     0.11200
H711        H  0.22792030  0.17663109  0.86323620     0.11200
H712        H  0.27086140  0.11341502  0.92636456     0.11200
C713        C  0.36549233  0.15787736  0.75455945    -0.15000
C714        C  0.39656461  0.14949863  0.75368547     0.07200
C715        C  0.40413816  0.11816351  0.75267599    -0.15000
C716        C  0.38133361  0.09577489  0.75218976    -0.15000
C717        C  0.35028731  0.10405681  0.75278931     0.07200
C718        C  0.34261943  0.13542175  0.75409526    -0.15000
H719        H  0.35877035  0.18180714  0.75543070     0.11200
H720        H  0.42776159  0.11082115  0.75198731     0.11200
H721        H  0.38815953  0.07188413  0.75121713     0.11200
H722        H  0.31896135  0.14267638  0.75465611     0.11200
C723        C  0.36658632  0.34419100  0.74745623    -0.15000
C724        C  0.39730345  0.35230584  0.75257080     0.07200
C725        C  0.40439628  0.38318558  0.75871960    -0.15000
C726        C  0.38145134  0.40550200  0.75923686    -0.15000
C727        C  0.35085692  0.39751999  0.75349369     0.07200
C728        C  0.34364351  0.36651034  0.74795613    -0.15000
H729        H  0.36023853  0.32060794  0.74270604     0.11200
H730        H  0.42771998  0.39017371  0.76317774     0.11200
H731        H  0.38776356  0.42908383  0.76401482     0.11200
H732        H  0.32032142  0.35949218  0.74350061     0.11200
C733        C  0.13292954  0.15679234  0.74376416    -0.15000
C734        C  0.10175296  0.14890248  0.74466259     0.07200
C735        C  0.09379948  0.11759118  0.74483080    -0.15000
C736        C  0.11633326  0.09479442  0.74518332    -0.15000
C737        C  0.14749101  0.10264233  0.74533409     0.07200
C738        C  0.15548323  0.13397563  0.74410673    -0.15000
H739        H  0.13999650  0.18063112  0.74328433     0.11200
H740        H  0.07007119  0.11058140  0.74519724     0.11200
H741        H  0.10925130  0.07097012  0.74577715     0.11200
H742        H  0.17921893  0.14097979  0.74383317     0.11200
C743        C  0.09344842  0.38417430  0.74874817    -0.15000
C744        C  0.10086622  0.35282950  0.75063600     0.07200
C745        C  0.13184109  0.34424426  0.75157427    -0.15000
C746        C  0.15484194  0.36642068  0.75044686    -0.15000
C747        C  0.14744051  0.39775581  0.74849008     0.07200
C748        C  0.11645395  0.40635557  0.74761938    -0.15000
H749        H  0.06986154  0.39163375  0.74795152     0.11200
H750        H  0.13842672  0.32031653  0.75311976     0.11200
H751        H  0.17842531  0.35895928  0.75128680     0.11200
H752        H  0.10986893  0.43028756  0.74612447     0.11200
C753        C  0.36582911  0.24599748  0.65731151    -0.15000
C754        C  0.39663084  0.25082769  0.64934907     0.07200
C755        C  0.40401570  0.25552993  0.61829102    -0.15000
C756        C  0.38128624  0.25537091  0.59576222    -0.15000
C757        C  0.35051690  0.25047451  0.60362549     0.07200
C758        C  0.34304939  0.24580467  0.63472791    -0.15000
H759        H  0.35929096  0.24213777  0.68098926     0.11200
H760        H  0.42742646  0.25948159  0.61130288     0.11200
H761        H  0.38791080  0.25921544  0.57211167     0.11200
H762        H  0.31962090  0.24182919  0.64165635     0.11200
C763        C  0.13141439  0.25235172  0.65571494    -0.15000
C764        C  0.10046526  0.24923997  0.64744001     0.07200
C765        C  0.09303574  0.24646089  0.61614748    -0.15000
C766        C  0.11591420  0.24717280  0.59371347    -0.15000
C767        C  0.14683578  0.25054991  0.60198412     0.07200
C768        C  0.15427133  0.25305562  0.63330158    -0.15000
H769        H  0.13808143  0.25450054  0.67957900     0.11200
H770        H  0.06951330  0.24381937  0.60891215     0.11200
H771        H  0.10930431  0.24493767  0.56984301     0.11200
H772        H  0.17778815  0.25564513  0.64057782     0.11200
C773        C  0.13382335  0.25067047  0.84267657    -0.15000
C774        C  0.10275343  0.24982916  0.85090571     0.07200
C775        C  0.09497959  0.24842926  0.88218996    -0.15000
C776        C  0.11762700  0.24825980  0.90472417    -0.15000
C777        C  0.14868672  0.24945648  0.89659632     0.07200
C778        C  0.15652711  0.25050804  0.86526563    -0.15000
H779        H  0.14066499  0.25161744  0.81878696     0.11200
H780        H  0.07132059  0.24751539  0.88939530     0.11200
H781        H  0.11069141  0.24725797  0.92857974     0.11200
H782        H  0.18021266  0.25132465  0.85813575     0.11200
C783        C  0.40535562  0.24418517  0.88369665    -0.15000
C784        C  0.39810416  0.24920728  0.85268021     0.07200
C785        C  0.36738972  0.25423627  0.84452752    -0.15000
C786        C  0.34453222  0.25443739  0.86688734    -0.15000
C787        C  0.35182837  0.24957513  0.89794257     0.07200
C788        C  0.38249041  0.24440221  0.90606473    -0.15000
H789        H  0.42871427  0.24002519  0.89074317     0.11200
H790        H  0.36095357  0.25830279  0.82085612     0.11200
H791        H  0.32118043  0.25864152  0.85982729     0.11200
H792        H  0.38888190  0.24035962  0.92974910     0.11200
C793        C  0.40482777  0.36738437  0.49694065    -0.15000
C794        C  0.39700373  0.39868601  0.49847129     0.07200
C795        C  0.36592583  0.40681144  0.49958556    -0.15000
C796        C  0.34328262  0.38417060  0.49972923    -0.15000
C797        C  0.35116094  0.35284270  0.49873104     0.07200
C798        C  0.38221320  0.34477041  0.49710931    -0.15000
H799        H  0.42849591  0.36023426  0.49584143     0.11200
H800        H  0.35902325  0.43068150  0.50061437     0.11200
H801        H  0.31960116  0.39127514  0.50085661     0.11200
H802        H  0.38915706  0.32091312  0.49609034     0.11200
C803        C  0.40618094  0.13348788  0.49902796    -0.15000
C804        C  0.39850387  0.10213310  0.50006524     0.07200
C805        C  0.36741027  0.09393085  0.50081663    -0.15000
C806        C  0.34462856  0.11646172  0.50048718    -0.15000
C807        C  0.35230070  0.14782737  0.49945765     0.07200
C808        C  0.38339774  0.15602016  0.49869178    -0.15000
H809        H  0.42984279  0.14071502  0.49842146     0.11200
H810        H  0.36056906  0.07003967  0.50167263     0.11200
H811        H  0.32097055  0.10922677  0.50113373     0.11200
H812        H  0.39023852  0.17991125  0.49787891     0.11200
C813        C  0.09364215  0.36579681  0.49278456    -0.15000
C814        C  0.10110273  0.39706879  0.49576174     0.07200
C815        C  0.13211771  0.40545684  0.49741907    -0.15000
C816        C  0.15502049  0.38313562  0.49714427    -0.15000
C817        C  0.14753985  0.35180593  0.49524103     0.07200
C818        C  0.11658602  0.34344022  0.49248266    -0.15000
H819        H  0.07005560  0.35851589  0.49096862     0.11200
H820        H  0.13880723  0.42932822  0.49940031     0.11200
H821        H  0.17858599  0.39048463  0.49895568     0.11200
H822        H  0.10997169  0.31954754  0.49048905     0.11200
C823        C  0.13404837  0.09304720  0.50338799    -0.15000
C824        C  0.10291752  0.10068309  0.50129302     0.07200
C825        C  0.09468684  0.13191052  0.49984955    -0.15000
C826        C  0.11696761  0.15488065  0.50020083    -0.15000
C827        C  0.14812349  0.14725898  0.50195844     0.07200
C828        C  0.15635970  0.11604872  0.50372490    -0.15000
H829        H  0.14124893  0.06928507  0.50470267     0.11200
H830        H  0.07095065  0.13873231  0.49827416     0.11200
H831        H  0.10971518  0.17862497  0.49883179     0.11200
H832        H  0.18011513  0.10929391  0.50527345     0.11200
C833        C  0.40543374  0.00465174  0.86748450    -0.15000
C834        C  0.39731920  0.00241924  0.89868897     0.07200
C835        C  0.36625174  0.00065152  0.90652430    -0.15000
C836        C  0.34382123  0.00101515  0.88372726    -0.15000
C837        C  0.35189672  0.00309547  0.85252829     0.07200
C838        C  0.38300669  0.00502165  0.84468995    -0.15000
H839        H  0.42915374  0.00612193  0.86056685     0.11200
H840        H  0.35918921  0.99881571  0.93029223     0.11200
H841        H  0.32011085  0.99942172  0.89062253     0.11200
H842        H  0.39011346  0.00669431  0.82091960     0.11200
C843        C  0.13153153  0.00132065  0.90561524    -0.15000
C844        C  0.10082696  0.99611725  0.89750054     0.07200
C845        C  0.09369349  0.99066411  0.86649403    -0.15000
C846        C  0.11664573  0.99096248  0.84410842    -0.15000
C847        C  0.14727509  0.99672846  0.85219957     0.07200
C848        C  0.15442831  0.00164042  0.88327691    -0.15000
H849        H  0.13793082  0.00563341  0.92926402     0.11200
H850        H  0.07036747  0.98624088  0.85947741     0.11200
H851        H  0.11033232  0.98673151  0.82042229     0.11200
H852        H  0.17771032  0.00616263  0.89037478     0.11200
C853        C  0.09487216  0.00783460  0.63317627    -0.15000
C854        C  0.10133712  0.99804179  0.60304927     0.07200
C855        C  0.13098334  0.98765429  0.59619235    -0.15000
C856        C  0.15380132  0.98763318  0.61869882    -0.15000
C857        C  0.14750384  0.99794187  0.64862539     0.07200
C858        C  0.11768134  0.00777004  0.65569189    -0.15000
H859        H  0.07230027  0.01602432  0.63926200     0.11200
H860        H  0.13658064  0.97945866  0.57337476     0.11200
H861        H  0.17637979  0.97943236  0.61267491     0.11200
H862        H  0.11206336  0.01592281  0.67852869     0.11200
C863        C  0.36864871  0.00405875  0.59483255    -0.15000
C864        C  0.39956649  0.00050501  0.60300961     0.07200
C865        C  0.40700200  0.99781367  0.63432012    -0.15000
C866        C  0.38408828  0.99826951  0.65678185    -0.15000
C867        C  0.35311055  0.00143115  0.64855097     0.07200
C868        C  0.34576366  0.00450793  0.61726453    -0.15000
H869        H  0.36200399  0.00650785  0.57099899     0.11200
H870        H  0.43052942  0.99515192  0.64152952     0.11200
H871        H  0.39070382  0.99590219  0.68063103     0.11200
H872        H  0.32226056  0.00723518  0.61001096     0.11200
C873        C  0.99800926  0.13344625  0.90670261    -0.15000
C874        C  0.99996906  0.10221891  0.89861455     0.07200
C875        C  0.49620389  0.09506179  0.86742698    -0.15000
C876        C  0.49681978  0.11792686  0.84508684    -0.15000
C877        C  0.00046852  0.14821997  0.85283862     0.07200
C878        C  0.99826234  0.15616536  0.88409180    -0.15000
H879        H  0.99615219  0.14041718  0.93052413     0.11200
H880        H  0.49457188  0.07132889  0.86010889     0.11200
H881        H  0.49556409  0.11112173  0.82118241     0.11200
H882        H  0.99657156  0.17996857  0.89115934     0.11200
C883        C  0.99982659  0.36824177  0.90601129    -0.15000
C884        C  0.99784795  0.39936640  0.89777462     0.07200
C885        C  0.52111320  0.39944604  0.87441747    -0.15000
C886        C  0.52148453  0.37698381  0.85149908    -0.15000
C887        C  0.99898838  0.35331415  0.85229943     0.07200
C888        C  0.00040064  0.34547979  0.88353685    -0.15000
H889        H  0.00111916  0.36135355  0.92987118     0.11200
H890        H  0.53618674  0.41909078  0.87246357     0.11200
H891        H  0.53684826  0.37952752  0.83215832     0.11200
H892        H  0.00204239  0.32172939  0.89071564     0.11200
C893        C  0.98155300  0.40339689  0.63043935    -0.15000
C894        C  0.99692269  0.39833437  0.60251597     0.07200
C895        C  0.48190381  0.40286253  0.63094062    -0.15000
C896        C  0.48232132  0.38036217  0.65381277    -0.15000
C897        C  0.99773874  0.35326938  0.64896528     0.07200
C898        C  0.98198375  0.38104171  0.65350484    -0.15000
H899        H  0.96903844  0.42452453  0.63430861     0.11200
H900        H  0.47168913  0.42497630  0.63595568     0.11200
H901        H  0.47234968  0.38552509  0.67600427     0.11200
H902        H  0.96970141  0.38527233  0.67470368     0.11200
C903        C  0.98469313  0.13117928  0.59641361    -0.15000
C904        C  0.99943090  0.10298477  0.60165270     0.07200
C905        C  0.48920750  0.13132659  0.59616032    -0.15000
C906        C  0.48850394  0.15395433  0.61895468    -0.15000
C907        C  0.99696547  0.14815119  0.64832809     0.07200
C908        C  0.98344378  0.15353725  0.61954099    -0.15000
H909        H  0.97383307  0.13580029  0.57454402     0.11200
H910        H  0.48233637  0.13742055  0.57305714     0.11200
H911        H  0.48118187  0.17690953  0.61282300     0.11200
H912        H  0.97181143  0.17500992  0.61495292     0.11200
O913        O  0.00329391  0.54919145  0.08809161    -0.88100
O914        O  0.99871523  0.55061737  0.41379347    -0.88300
O915        O  0.05119893  0.58606057  0.00002211    -0.90000
O916        O  0.45155668  0.58805024  0.99918554    -0.88700
O917        O  0.41406816  0.55131012  0.99971446    -0.88300
O918        O  0.08777950  0.54834509  0.99872892    -0.89700
O919        O  0.00088570  0.58795299  0.45092014    -0.88200
O920        O  0.00307356  0.58649132  0.05095211    -0.87700
Zr921      Zr  0.00077968  0.56195027  0.00099947     2.84300
O922        O  0.46921423  0.53121833  0.46996953    -1.09700
O923        O  0.03217497  0.53045865  0.03095855    -1.10400
C924        C  0.00356814  0.57745063  0.07916134     1.05000
C925        C  0.99953287  0.57891422  0.42269315     1.04900
C926        C  0.07927945  0.57677319  0.99928850     1.07900
C927        C  0.42333975  0.57950459  0.99949179     1.05700
H928        H  0.04394914  0.54379731  0.45593633     0.31300
O929        O  0.03114663  0.53111564  0.46877455    -1.30700
H930        H  0.45712961  0.54469306  0.04350213     0.30900
O931        O  0.46959260  0.53157846  0.03072638    -1.32300
O932        O  0.99911935  0.94941685  0.41324631    -0.88100
O933        O  0.00166288  0.94962165  0.08729517    -0.89600
O934        O  0.08571745  0.49908295  0.44894624    -0.88200
O935        O  0.41253810  0.50092318  0.45165078    -0.88200
O936        O  0.41359224  0.50244436  0.05044365    -0.88000
O937        O  0.08854661  0.49980041  0.04820673    -0.87800
O938        O  0.04762505  0.91103372  0.99909040    -0.88100
O939        O  0.44775130  0.91506179  0.00361582    -0.87600
O940        O  0.08491530  0.94801621  0.99846765    -0.88700
O941        O  0.41117719  0.95273311  0.00425600    -0.87800
O942        O  0.04858833  0.50052031  0.41182793    -0.88200
O943        O  0.05229118  0.50049842  0.08620733    -0.87900
O944        O  0.45119102  0.50043527  0.08721241    -0.87600
O945        O  0.44944320  0.50013075  0.41422116    -0.88000
O946        O  0.99956295  0.91231309  0.45057682    -0.88300
O947        O  0.99847435  0.91244142  0.04993412    -0.89600
Zr948      Zr  0.99949644  0.50047189  0.43819698     2.83100
Zr949      Zr  0.00183237  0.49966404  0.06253402     2.83500
Zr950      Zr  0.06163023  0.49896956  0.99905180     2.84100
Zr951      Zr  0.43805195  0.50081847  0.00016983     2.83400
Zr952      Zr  0.99855036  0.93781230  0.00030649     2.84200
O953        O  0.46871997  0.97008877  0.03175424    -1.10200
O954        O  0.02977075  0.96783821  0.46938421    -1.09700
C955        C  0.99984316  0.92122323  0.42221895     1.05000
C956        C  0.00029869  0.92138900  0.07815683     1.04000
C957        C  0.07677172  0.49981045  0.42062579     1.05100
C958        C  0.42131978  0.50050054  0.42328978     1.05500
C959        C  0.42293862  0.50166069  0.07860761     1.05100
C960        C  0.08027408  0.50043685  0.07672533     1.04600
C961        C  0.07587923  0.91972836  0.99833793     1.05100
C962        C  0.41972140  0.92434194  0.00493320     1.04600
H963        H  0.04350753  0.95492631  0.04352852     0.31200
O964        O  0.03068847  0.96793777  0.03104126    -1.31300
H965        H  0.45637465  0.95595632  0.45575640     0.31300
O966        O  0.46917887  0.96874842  0.46852529    -1.32700
O967        O  0.99954581  0.70009150  0.16273573    -0.88100
O968        O  0.99943416  0.70017664  0.33688418    -0.88300
O969        O  0.04904591  0.66212496  0.24960772    -0.90000
O970        O  0.44928087  0.66349655  0.25124906    -0.88700
O971        O  0.41285028  0.70137743  0.25234038    -0.88300
O972        O  0.08628179  0.69916486  0.24885384    -0.89700
O973        O  0.99885742  0.66268010  0.29985839    -0.88200
O974        O  0.99985658  0.66306207  0.20017235    -0.87700
Zr975      Zr  0.99949741  0.68789692  0.25006601     2.84300
O976        O  0.47002651  0.71880677  0.28151329    -1.09700
O977        O  0.02996178  0.71868559  0.21856608    -1.10400
C978        C  0.00011751  0.67189633  0.17188701     1.05000
C979        C  0.99882962  0.67183474  0.32809800     1.04900
C980        C  0.07727828  0.67087448  0.24909803     1.07900
C981        C  0.42123288  0.67293905  0.25207420     1.05700
H982        H  0.04377645  0.70556536  0.29348902     0.31300
O983        O  0.03107463  0.71846736  0.28076865    -1.30700
H984        H  0.45511550  0.70650245  0.20714458     0.30900
O985        O  0.46833937  0.71908766  0.21967982    -1.32300
O986        O  0.00314447  0.80007283  0.33624095    -0.88100
O987        O  0.99980457  0.79968807  0.16267854    -0.89600
O988        O  0.08717083  0.74898133  0.29910263    -0.88200
O989        O  0.41528442  0.74893041  0.30225288    -0.88200
O990        O  0.41172541  0.75084884  0.20278045    -0.88000
O991        O  0.08543700  0.74791711  0.19843484    -0.87800
O992        O  0.05003202  0.83674585  0.25091843    -0.88100
O993        O  0.45250863  0.83845932  0.25175282    -0.87600
O994        O  0.08683328  0.79922664  0.24987851    -0.88700
O995        O  0.41520842  0.80149190  0.25225652    -0.87800
O996        O  0.05044677  0.74935676  0.33667697    -0.88200
O997        O  0.04809373  0.74869686  0.16147914    -0.87900
O998        O  0.44813261  0.75026570  0.16494844    -0.87600
O999        O  0.45275629  0.74768986  0.33901257    -0.88000
O1000       O  0.00187613  0.83737655  0.29913324    -0.88300
O1001       O  0.00168443  0.83717948  0.19980635    -0.89600
Zr1002     Zr  0.00059105  0.74994994  0.31168251     2.83100
Zr1003     Zr  0.99888629  0.74987335  0.18790271     2.83500
Zr1004     Zr  0.06150182  0.74932397  0.24918867     2.84100
Zr1005     Zr  0.43891558  0.75064789  0.25167940     2.83400
Zr1006     Zr  0.00000295  0.81174308  0.24961439     2.84200
O1007       O  0.46888970  0.78150846  0.21980681    -1.10200
O1008       O  0.03112160  0.78068685  0.28028741    -1.09700
C1009       C  0.00315666  0.82836660  0.32735030     1.05000
C1010       C  0.00111657  0.82797107  0.17157660     1.07600
C1011       C  0.07855142  0.74905027  0.32754260     1.05100
C1012       C  0.42440350  0.74782004  0.33045493     1.05500
C1013       C  0.42012074  0.75061935  0.17430693     1.05100
C1014       C  0.07635082  0.74790422  0.17013255     1.04600
C1015       C  0.07817623  0.82762072  0.25061764     1.05100
C1016       C  0.42428315  0.82978848  0.25211393     1.04600
H1017       H  0.04346918  0.79325530  0.20550947     0.31200
O1018       O  0.03064225  0.78062595  0.21837546    -1.31300
H1019       H  0.45845053  0.79398777  0.29549277     0.31300
O1020       O  0.47069315  0.78115082  0.28221769    -1.32700
O1021       O  0.33791509  0.00128991  0.20207212    -0.88100
O1022       O  0.16500821  0.00019461  0.19865295    -0.88300
O1023       O  0.25283278  0.94989877  0.16347198    -0.90000
O1024       O  0.25165398  0.54838862  0.16159596    -0.88700
O1025       O  0.24743643  0.58570558  0.19875540    -0.88300
O1026       O  0.25254763  0.91265096  0.20070342    -0.89700
O1027       O  0.20232259  0.00046858  0.16168199    -0.88200
O1028       O  0.30142530  0.00047360  0.16433353    -0.87700
Zr1029     Zr  0.25120320  0.00010869  0.18849024     2.84300
O1030       O  0.21967018  0.52981119  0.21828612    -1.09700
O1031       O  0.28187004  0.96924065  0.21975591    -1.10400
C1032       C  0.32946213  0.00099731  0.17364869     1.05000
C1033       C  0.17408830  0.00056107  0.17037762     1.04900
C1034       C  0.25301495  0.92156721  0.17240519     1.07900
C1035       C  0.24922312  0.57658339  0.17049476     1.05700
H1036       H  0.20774492  0.95563784  0.20576579     0.31300
O1037       O  0.22014097  0.96854309  0.21882734    -1.30700
H1038       H  0.29411711  0.54431713  0.20630168     0.30900
O1039       O  0.28151247  0.53125526  0.21895923    -1.32300
O1040       O  0.16212206  0.99928396  0.29867620    -0.88100
O1041       O  0.33608979  0.00192427  0.30108505    -0.89600
O1042       O  0.20119842  0.91218484  0.24979865    -0.88200
O1043       O  0.19928990  0.58594053  0.24863344    -0.88200
O1044       O  0.29802126  0.58868729  0.25041346    -0.88000
O1045       O  0.30155498  0.91399469  0.25094198    -0.87800
O1046       O  0.25120390  0.95021121  0.33802703    -0.88100
O1047       O  0.25081447  0.54939525  0.33723644    -0.87600
O1048       O  0.25029964  0.91285052  0.30063221    -0.88700
O1049       O  0.24849135  0.58655648  0.29986037    -0.87800
O1050       O  0.16399639  0.94929693  0.24937880    -0.88200
O1051       O  0.33800922  0.95182758  0.25162330    -0.87900
O1052       O  0.33534967  0.55174092  0.25165792    -0.87600
O1053       O  0.16277649  0.54820888  0.24865664    -0.88000
O1054       O  0.19867250  0.99940198  0.33644159    -0.88300
O1055       O  0.29889649  0.00114043  0.33814714    -0.89600
Zr1056     Zr  0.18865083  0.99939690  0.24945237     2.83100
Zr1057     Zr  0.31144053  0.00100283  0.25121097     2.83500
Zr1058     Zr  0.25092489  0.93800066  0.25053791     2.84100
Zr1059     Zr  0.24936552  0.56153506  0.24957609     2.83400
Zr1060     Zr  0.24927624  0.00011381  0.31258180     2.84200
O1061       O  0.28044703  0.53106753  0.28109751    -1.10200
O1062       O  0.21915971  0.96862771  0.28115288    -1.09700
C1063       C  0.17058353  0.99916540  0.32712450     1.05000
C1064       C  0.32710081  0.00162711  0.32931792     1.07600
C1065       C  0.17294754  0.92101538  0.24960861     1.05100
C1066       C  0.17124154  0.57667822  0.24845070     1.05500
C1067       C  0.32624367  0.58001832  0.25137563     1.05100
C1068       C  0.32963893  0.92336261  0.25137622     1.04600
C1069       C  0.25093436  0.92193595  0.32891633     1.05100
C1070       C  0.24975453  0.57764517  0.32817268     1.04600
H1071       H  0.29381099  0.95690477  0.29486835     0.31200
O1072       O  0.28094115  0.96945480  0.28197245    -1.31300
H1073       H  0.20599460  0.54283268  0.29347155     0.31300
O1074       O  0.21902608  0.53017631  0.28080265    -1.32700
O1075       O  0.20142698  0.66212503  0.49954712    -0.88100
O1076       O  0.19853962  0.83577011  0.49932444    -0.88300
O1077       O  0.16239723  0.74823230  0.04760323    -0.90000
O1078       O  0.16387641  0.74932758  0.44980772    -0.88700
O1079       O  0.20092287  0.74996019  0.41258403    -0.88300
O1080       O  0.19874751  0.74864822  0.08554332    -0.89700
O1081       O  0.16208079  0.79794062  0.49871442    -0.88200
O1082       O  0.16396660  0.69899323  0.50115899    -0.87700
Zr1083     Zr  0.18862114  0.74914487  0.50003520     2.84300
O1084       O  0.21907427  0.78086115  0.46937857    -1.09700
O1085       O  0.21933255  0.71821684  0.02989002    -1.10400
C1086       C  0.17316610  0.67079548  0.50045705     1.05000
C1087       C  0.17048419  0.82633643  0.49867247     1.04900
C1088       C  0.17072840  0.74813363  0.07612198     1.07900
C1089       C  0.17274562  0.74960478  0.42147575     1.05700
H1090       H  0.20513619  0.79308295  0.04269986     0.31300
O1091       O  0.21828575  0.78036758  0.03020817    -1.30700
H1092       H  0.20719474  0.70553969  0.45603118     0.30900
O1093       O  0.21973618  0.71849762  0.46889637    -1.32300
O1094       O  0.29903376  0.83798620  0.50158638    -0.88100
O1095       O  0.30163726  0.66434837  0.49951073    -0.89600
O1096       O  0.24933451  0.79926600  0.08698552    -0.88200
O1097       O  0.24889398  0.80051915  0.41355642    -0.88200
O1098       O  0.25057008  0.70020710  0.41296852    -0.88000
O1099       O  0.24772486  0.69932710  0.08695339    -0.87800
O1100       O  0.33618225  0.75163629  0.05127087    -0.88100
O1101       O  0.33700045  0.75031103  0.45151184    -0.87600
O1102       O  0.29852638  0.75017998  0.08787957    -0.88700
O1103       O  0.30059359  0.74999003  0.41365192    -0.87800
O1104       O  0.24950903  0.83652191  0.04977369    -0.88200
O1105       O  0.25169558  0.66226478  0.04952931    -0.87900
O1106       O  0.25258237  0.66284647  0.45012643    -0.87600
O1107       O  0.25059802  0.83783076  0.45097854    -0.88000
O1108       O  0.33608326  0.80077843  0.50143504    -0.88300
O1109       O  0.33813571  0.70208723  0.50008479    -0.89600
Zr1110     Zr  0.24930984  0.81223507  0.50077063     2.83100
Zr1111     Zr  0.25098106  0.68811252  0.50018286     2.83500
Zr1112     Zr  0.24914039  0.74944616  0.06161993     2.84100
Zr1113     Zr  0.25040230  0.75027267  0.43835641     2.83400
Zr1114     Zr  0.31128383  0.75090595  0.50110075     2.84200
O1115       O  0.28146906  0.71957888  0.46944614    -1.10200
O1116       O  0.28000186  0.78107400  0.03124221    -1.09700
C1117       C  0.32724856  0.82906489  0.50153246     1.05000
C1118       C  0.32971899  0.67367709  0.49950361     1.07600
C1119       C  0.24978610  0.82756340  0.07808953     1.05100
C1120       C  0.24979624  0.82877609  0.42269796     1.05500
C1121       C  0.25169610  0.67189302  0.42185974     1.05100
C1122       C  0.24950282  0.67110260  0.07778506     1.04600
C1123       C  0.32685971  0.75108134  0.07946538     1.05100
C1124       C  0.32865508  0.74980811  0.42305190     1.04600
H1125       H  0.29418579  0.70652365  0.04436023     0.31200
O1126       O  0.28145598  0.71910833  0.03135054    -1.31300
H1127       H  0.29351215  0.79461297  0.45701482     0.31300
O1128       O  0.28071942  0.78172951  0.46966173    -1.32700
C1129       C  0.22765336  0.62461404  0.14785210    -0.15000
C1130       C  0.24874709  0.60035699  0.14641395     0.07200
C1131       C  0.26972690  0.59923213  0.12203362    -0.15000
C1132       C  0.26995113  0.62233005  0.09972126    -0.15000
C1133       C  0.24916511  0.64685166  0.10140744     0.07200
C1134       C  0.22787878  0.64772949  0.12552341    -0.15000
H1135       H  0.21092591  0.62555984  0.16617318     0.11200
H1136       H  0.28632172  0.58081478  0.12061623     0.11200
H1137       H  0.28666041  0.62132615  0.08138387     0.11200
H1138       H  0.21126728  0.66612983  0.12688839     0.11200
C1139       C  0.24927087  0.86632305  0.15621434    -0.15000
C1140       C  0.25320691  0.89740599  0.14834844     0.07200
C1141       C  0.25647034  0.90521397  0.11719066    -0.15000
C1142       C  0.25532631  0.88258534  0.09443111    -0.15000
C1143       C  0.25094472  0.85157101  0.10225725     0.07200
C1144       C  0.24812861  0.84369532  0.13345559    -0.15000
H1145       H  0.24666706  0.85943343  0.17996625     0.11200
H1146       H  0.25977212  0.92887462  0.11029473     0.11200
H1147       H  0.25791564  0.88946006  0.07067463     0.11200
H1148       H  0.24481230  0.82003771  0.14036233     0.11200
C1149       C  0.27181657  0.89937669  0.37733008    -0.15000
C1150       C  0.25105117  0.89800582  0.35277365     0.07200
C1151       C  0.23001289  0.87373296  0.35129266    -0.15000
C1152       C  0.22955955  0.85121657  0.37415116    -0.15000
C1153       C  0.25017390  0.85264638  0.39879292     0.07200
C1154       C  0.27136952  0.87682348  0.40021528    -0.15000
H1155       H  0.28849954  0.91772052  0.37861701     0.11200
H1156       H  0.21361630  0.87249839  0.33268748     0.11200
H1157       H  0.21287048  0.83288251  0.37282686     0.11200
H1158       H  0.28776963  0.87801510  0.41882246     0.11200
C1159       C  0.23557336  0.63003812  0.34723455    -0.15000
C1160       C  0.25017567  0.60172884  0.35214778     0.07200
C1161       C  0.26545992  0.59671955  0.38008689    -0.15000
C1162       C  0.26614203  0.61959088  0.40267825    -0.15000
C1163       C  0.25152966  0.64790167  0.39777056     0.07200
C1164       C  0.23626066  0.65291197  0.36982246    -0.15000
H1165       H  0.22332650  0.63435316  0.32605074     0.11200
H1166       H  0.27722231  0.57524028  0.38430755     0.11200
H1167       H  0.27833567  0.61525248  0.42388861     0.11200
H1168       H  0.22444876  0.67436828  0.36562378     0.11200
C1169       C  0.36575488  0.65786138  0.25007256    -0.15000
C1170       C  0.39672259  0.64938548  0.25247477     0.07200
C1171       C  0.40406622  0.61808841  0.25494777    -0.15000
C1172       C  0.38116214  0.59580336  0.25476941    -0.15000
C1173       C  0.35023640  0.60413582  0.25207468     0.07200
C1174       C  0.34277176  0.63549724  0.24985933    -0.15000
H1175       H  0.35922382  0.68177449  0.24809093     0.11200
H1176       H  0.42759407  0.61068837  0.25699152     0.11200
H1177       H  0.38782979  0.57192898  0.25668220     0.11200
H1178       H  0.31921449  0.64279354  0.24775411     0.11200
C1179       C  0.36951422  0.84598655  0.24787347    -0.15000
C1180       C  0.40033576  0.85399255  0.25215261     0.07200
C1181       C  0.40782254  0.88519979  0.25611552    -0.15000
C1182       C  0.38496580  0.90774538  0.25588485    -0.15000
C1183       C  0.35409066  0.89962344  0.25165358     0.07200
C1184       C  0.34674317  0.86844951  0.24762828    -0.15000
H1185       H  0.36286917  0.82225919  0.24448944     0.11200
H1186       H  0.43131472  0.89223258  0.25950994     0.11200
H1187       H  0.39151016  0.93152227  0.25913827     0.11200
H1188       H  0.32331100  0.86129755  0.24411146     0.11200
C1189       C  0.13228859  0.65462548  0.24672596    -0.15000
C1190       C  0.10121900  0.64666460  0.24880356     0.07200
C1191       C  0.09335197  0.61536795  0.25053107    -0.15000
C1192       C  0.11597527  0.59264884  0.25023393    -0.15000
C1193       C  0.14705012  0.60064838  0.24824531     0.07200
C1194       C  0.15487228  0.63194563  0.24642161    -0.15000
H1195       H  0.13927032  0.67844737  0.24529118     0.11200
H1196       H  0.06968043  0.60834686  0.25220143     0.11200
H1197       H  0.10906793  0.56881009  0.25173041     0.11200
H1198       H  0.17852555  0.63903923  0.24478432     0.11200
C1199       C  0.09528541  0.88254515  0.25597428    -0.15000
C1200       C  0.10247339  0.85149421  0.25074328     0.07200
C1201       C  0.13314334  0.84350930  0.24513992    -0.15000
C1202       C  0.15599691  0.86598333  0.24465448    -0.15000
C1203       C  0.14878689  0.89702775  0.24982995     0.07200
C1204       C  0.11812386  0.90500655  0.25547354    -0.15000
H1205       H  0.07198332  0.88955659  0.26053031     0.11200
H1206       H  0.13953676  0.81986017  0.24083139     0.11200
H1207       H  0.17930065  0.85901658  0.24004267     0.11200
H1208       H  0.11170713  0.92866003  0.25973778     0.11200
C1209       C  0.36494380  0.74783483  0.15802942    -0.15000
C1210       C  0.39600838  0.75078512  0.15032294     0.07200
C1211       C  0.40400830  0.75395199  0.11919497    -0.15000
C1212       C  0.38162266  0.75419927  0.09636070    -0.15000
C1213       C  0.35054679  0.75121874  0.10396189     0.07200
C1214       C  0.34248231  0.74805916  0.13511549    -0.15000
H1215       H  0.35794701  0.74522352  0.18174569     0.11200
H1216       H  0.42766539  0.75637485  0.11233926     0.11200
H1217       H  0.38876999  0.75675440  0.07268587     0.11200
H1218       H  0.31879697  0.74560151  0.14184591     0.11200
C1219       C  0.13139727  0.74616923  0.15389817    -0.15000
C1220       C  0.10029710  0.74718029  0.14584378     0.07200
C1221       C  0.09251269  0.74787187  0.11446225    -0.15000
C1222       C  0.11526682  0.74802301  0.09181596    -0.15000
C1223       C  0.14637954  0.74746520  0.09996857     0.07200
C1224       C  0.15408391  0.74633319  0.13131905    -0.15000
H1225       H  0.13835125  0.74543968  0.17775862     0.11200
H1226       H  0.06882278  0.74852062  0.10733455     0.11200
H1227       H  0.10842911  0.74877183  0.06792033     0.11200
H1228       H  0.17774204  0.74568636  0.13855316     0.11200
C1229       C  0.13355172  0.74431350  0.34371040    -0.15000
C1230       C  0.10269257  0.74878859  0.35156813     0.07200
C1231       C  0.09513021  0.75323215  0.38267506    -0.15000
C1232       C  0.11782394  0.75351632  0.40526683    -0.15000
C1233       C  0.14870219  0.74930076  0.39739243     0.07200
C1234       C  0.15626932  0.74459539  0.36632797    -0.15000
H1235       H  0.14021659  0.74054368  0.32004551     0.11200
H1236       H  0.07164103  0.75677951  0.38963085     0.11200
H1237       H  0.11111886  0.75725489  0.42892733     0.11200
H1238       H  0.17976907  0.74098917  0.35943612     0.11200
C1239       C  0.40742998  0.74754721  0.38594347    -0.15000
C1240       C  0.40015778  0.74713758  0.35447744     0.07200
C1241       C  0.36911711  0.74691875  0.34591378    -0.15000
C1242       C  0.34602755  0.74780634  0.36806261    -0.15000
C1243       C  0.35325038  0.74877568  0.39948836     0.07200
C1244       C  0.38426939  0.74840919  0.40815851    -0.15000
H1245       H  0.43101318  0.74755674  0.39344741     0.11200
H1246       H  0.36250449  0.74636549  0.32194974     0.11200
H1247       H  0.32247391  0.74784245  0.36045841     0.11200
H1248       H  0.39074909  0.74893395  0.43216202     0.11200
C1249       C  0.40379471  0.86924379  0.00905856    -0.15000
C1250       C  0.39566996  0.90040676  0.00681092     0.07200
C1251       C  0.36451032  0.90817337  0.00530922    -0.15000
C1252       C  0.34213533  0.88521976  0.00479976    -0.15000
C1253       C  0.35038803  0.85398473  0.00584391     0.07200
C1254       C  0.38148355  0.84635075  0.00852100    -0.15000
H1255       H  0.42751569  0.86238346  0.01071539     0.11200
H1256       H  0.35738156  0.93195136  0.00386177     0.11200
H1257       H  0.31839590  0.89198670  0.00305506     0.11200
H1258       H  0.38872743  0.82260071  0.00980728     0.11200
C1259       C  0.40796460  0.63510824  0.99891045    -0.15000
C1260       C  0.39976508  0.60385734  0.99975979     0.07200
C1261       C  0.36867822  0.59599939  0.00096483    -0.15000
C1262       C  0.34629298  0.61872578  0.00110707    -0.15000
C1263       C  0.35436261  0.64994060  0.00005096     0.07200
C1264       C  0.38549567  0.65792004  0.99906095    -0.15000
H1265       H  0.43172250  0.64199573  0.99805206     0.11200
H1266       H  0.36150627  0.57220641  0.00178833     0.11200
H1267       H  0.32258146  0.61170802  0.00204209     0.11200
H1268       H  0.39254468  0.68175634  0.99829241     0.11200
C1269       C  0.09265480  0.86428970  0.99989300    -0.15000
C1270       C  0.09997305  0.89563803  0.99717228     0.07200
C1271       C  0.13080189  0.90392611  0.99321123    -0.15000
C1272       C  0.15373035  0.88159954  0.99234398    -0.15000
C1273       C  0.14652593  0.85030953  0.99552301     0.07200
C1274       C  0.11563624  0.84191074  0.99901071    -0.15000
H1275       H  0.06919921  0.85700926  0.00296453     0.11200
H1276       H  0.13735702  0.92778791  0.99080390     0.11200
H1277       H  0.17717540  0.88895591  0.98938166     0.11200
H1278       H  0.10917757  0.81803050  0.00152146     0.11200
C1279       C  0.13467795  0.59230556  0.99939534    -0.15000
C1280       C  0.10358566  0.60058237  0.99915999     0.07200
C1281       C  0.09591679  0.63193561  0.99909703    -0.15000
C1282       C  0.11866404  0.65441457  0.99934451    -0.15000
C1283       C  0.14975237  0.64619963  0.99960622     0.07200
C1284       C  0.15748027  0.61483880  0.99966431    -0.15000
H1285       H  0.14147462  0.56838570  0.99945597     0.11200
H1286       H  0.07226733  0.63922782  0.99889209     0.11200
H1287       H  0.11177070  0.67830628  0.99931245     0.11200
H1288       H  0.18115758  0.60763838  0.99984181     0.11200
C1289       C  0.40519362  0.50512617  0.36825380    -0.15000
C1290       C  0.39739223  0.50019144  0.39918874     0.07200
C1291       C  0.36663432  0.49467821  0.40669736    -0.15000
C1292       C  0.34420191  0.49437972  0.38382660    -0.15000
C1293       C  0.35197692  0.49968400  0.35292695     0.07200
C1294       C  0.38279457  0.50484480  0.34541876    -0.15000
H1295       H  0.42864244  0.50946730  0.36162173     0.11200
H1296       H  0.35986288  0.49043813  0.43024213     0.11200
H1297       H  0.32075342  0.48995760  0.39039916     0.11200
H1298       H  0.38965857  0.50898460  0.32188440     0.11200
C1299       C  0.13132709  0.49361982  0.40420577    -0.15000
C1300       C  0.10076916  0.49986956  0.39649595     0.07200
C1301       C  0.09355159  0.50611604  0.36562195    -0.15000
C1302       C  0.11635703  0.50585796  0.34304539    -0.15000
C1303       C  0.14692452  0.49936483  0.35081172     0.07200
C1304       C  0.15407051  0.49337543  0.38169422    -0.15000
H1305       H  0.13774215  0.48862478  0.42769897     0.11200
H1306       H  0.07030683  0.51132420  0.35888243     0.11200
H1307       H  0.11003564  0.51089708  0.31953143     0.11200
H1308       H  0.17729070  0.48821717  0.38853003     0.11200
C1309       C  0.09691554  0.50444750  0.13172078    -0.15000
C1310       C  0.10458031  0.50091511  0.10053106     0.07200
C1311       C  0.13553299  0.49745738  0.09253797    -0.15000
C1312       C  0.15817004  0.49714323  0.11522963    -0.15000
C1313       C  0.15037966  0.50029063  0.14643448     0.07200
C1314       C  0.11949034  0.50412186  0.15434917    -0.15000
H1315       H  0.07337630  0.50740157  0.13877649     0.11200
H1316       H  0.14229311  0.49468185  0.06876509     0.11200
H1317       H  0.18174387  0.49416296  0.10829620     0.11200
H1318       H  0.11264036  0.50688909  0.17810017     0.11200
C1319       C  0.37069802  0.51557764  0.09746337    -0.15000
C1320       C  0.39940462  0.50220956  0.10295021     0.07200
C1321       C  0.40534554  0.48915783  0.13184566    -0.15000
C1322       C  0.38285766  0.48902654  0.15464145    -0.15000
C1323       C  0.35397400  0.50188123  0.14894968     0.07200
C1324       C  0.34820118  0.51540556  0.12024384    -0.15000
H1325       H  0.36567566  0.52628019  0.07558713     0.11200
H1326       H  0.42720722  0.47854205  0.13664405     0.11200
H1327       H  0.38785699  0.47832702  0.17652317     0.11200
H1328       H  0.32631354  0.52598266  0.11546371     0.11200
C1329       C  0.99945027  0.63407060  0.40638331    -0.15000
C1330       C  0.99885953  0.60274374  0.39857546     0.07200
C1331       C  0.49067711  0.59474753  0.36865198    -0.15000
C1332       C  0.49179045  0.61691248  0.34551438    -0.15000
C1333       C  0.99828329  0.64806137  0.35232023     0.07200
C1334       C  0.99913512  0.65646965  0.38351491    -0.15000
H1335       H  0.00027942  0.64136395  0.43016659     0.11200
H1336       H  0.48367922  0.57163479  0.36266714     0.11200
H1337       H  0.48547824  0.61034846  0.32236170     0.11200
H1338       H  0.99978229  0.68039159  0.39035171     0.11200
C1339       C  0.00446089  0.86629916  0.40559993    -0.15000
C1340       C  0.00146461  0.89746920  0.39793711     0.07200
C1341       C  0.50060852  0.90564436  0.36606432    -0.15000
C1342       C  0.50131288  0.88287660  0.34352534    -0.15000
C1343       C  0.00406285  0.85226407  0.35148610     0.07200
C1344       C  0.00582792  0.84396232  0.38264035    -0.15000
H1345       H  0.00561326  0.85907109  0.42936384     0.11200
H1346       H  0.49796307  0.92933836  0.35899356     0.11200
H1347       H  0.49910117  0.88969746  0.31971215     0.11200
H1348       H  0.00782858  0.82011711  0.38940400     0.11200
C1349       C  0.01746996  0.90190047  0.12921392    -0.15000
C1350       C  0.00109051  0.89732451  0.10184564     0.07200
C1351       C  0.49709127  0.90612203  0.13381421    -0.15000
C1352       C  0.49669886  0.88331832  0.15632092    -0.15000
C1353       C  0.00176274  0.85160690  0.14743889     0.07200
C1354       C  0.01779858  0.87920290  0.15186704    -0.15000
H1355       H  0.03013551  0.92295238  0.13299487     0.11200
H1356       H  0.49788265  0.92992600  0.14103697     0.11200
H1357       H  0.49725443  0.89023311  0.18022278     0.11200
H1358       H  0.03065313  0.88313814  0.17277307     0.11200
C1359       C  0.00798838  0.63242111  0.09497574    -0.15000
C1360       C  0.00385194  0.60145305  0.10304922     0.07200
C1361       C  0.49806795  0.63509789  0.09211151    -0.15000
C1362       C  0.49739912  0.65757561  0.11503478    -0.15000
C1363       C  0.00138592  0.64772712  0.14818245     0.07200
C1364       C  0.00672936  0.65533077  0.11730449    -0.15000
H1365       H  0.01205853  0.63904733  0.07135515     0.11200
H1366       H  0.49754075  0.64227280  0.06830229     0.11200
H1367       H  0.49645728  0.68148580  0.10824965     0.11200
H1368       H  0.01000969  0.67897759  0.11033789     0.11200
O1369       O  0.00088798  0.54952747  0.58732873    -0.88100
O1370       O  0.99653477  0.55060029  0.91422281    -0.88300
O1371       O  0.05137382  0.58627503  0.50090295    -0.90000
O1372       O  0.45197056  0.58827682  0.50153681    -0.88700
O1373       O  0.41455387  0.55143020  0.50105772    -0.88300
O1374       O  0.08799888  0.54855856  0.49922154    -0.89700
O1375       O  0.99849297  0.58782706  0.95144897    -0.88200
O1376       O  0.00228821  0.58697389  0.55034503    -0.87700
Zr1377     Zr  0.00088989  0.56220152  0.50031526     2.84300
O1378       O  0.46859788  0.53114478  0.96838390    -1.09700
O1379       O  0.03135543  0.53065342  0.53100683    -1.10400
C1380       C  0.00175973  0.57781682  0.57854228     1.05000
C1381       C  0.99689530  0.57887037  0.92316717     1.04900
C1382       C  0.07943705  0.57696271  0.50014675     1.07900
C1383       C  0.42372620  0.57969562  0.50116991     1.05700
H1384       H  0.04303404  0.54371988  0.95597015     0.31300
O1385       O  0.03057612  0.53091451  0.96902612    -1.30700
H1386       H  0.45731652  0.54408982  0.54523989     0.30900
O1387       O  0.46972949  0.53110598  0.53227728    -1.32300
O1388       O  0.99810205  0.95002999  0.91311131    -0.88100
O1389       O  0.99958497  0.95115031  0.58787947    -0.89600
O1390       O  0.08494309  0.49903482  0.94824290    -0.88200
O1391       O  0.41280304  0.50088621  0.95014040    -0.88200
O1392       O  0.41413422  0.50084241  0.55184981    -0.88000
O1393       O  0.08632170  0.49925002  0.54952472    -0.87800
O1394       O  0.04758389  0.91074742  0.50034249    -0.88100
O1395       O  0.45061617  0.91272840  0.49877950    -0.87600
O1396       O  0.08494538  0.94768209  0.49975137    -0.88700
O1397       O  0.41383413  0.95018132  0.50062169    -0.87800
O1398       O  0.04719307  0.50148803  0.91179315    -0.88200
O1399       O  0.04955826  0.49964927  0.58707186    -0.87900
O1400       O  0.45145920  0.50036417  0.58882093    -0.87600
O1401       O  0.44923895  0.49913740  0.91232939    -0.88000
O1402       O  0.99819337  0.91279451  0.95030965    -0.88300
O1403       O  0.00094223  0.91315479  0.55123487    -0.89600
Zr1404     Zr  0.99818994  0.50070072  0.93885526     2.83100
Zr1405     Zr  0.99995377  0.49999149  0.56174379     2.83500
Zr1406     Zr  0.06141607  0.49935236  0.49948259     2.84100
Zr1407     Zr  0.43834691  0.50063204  0.50128395     2.83400
Zr1408     Zr  0.99870353  0.93755999  0.50082411     2.84200
O1409       O  0.47003472  0.96851487  0.53085797    -1.10200
O1410       O  0.02941340  0.96826466  0.96889731    -1.09700
C1411       C  0.99837125  0.92176378  0.92203699     1.05000
C1412       C  0.00062561  0.92271887  0.57937311     1.04000
C1413       C  0.07555723  0.50043733  0.92012054     1.05100
C1414       C  0.42124023  0.50015683  0.92167148     1.05500
C1415       C  0.42325978  0.50076014  0.58012688     1.05100
C1416       C  0.07764284  0.49938328  0.57790457     1.04600
C1417       C  0.07582092  0.91941414  0.49988682     1.05100
C1418       C  0.42247194  0.92182487  0.49972600     1.04600
H1419       H  0.04290541  0.95563802  0.54424572     0.31200
O1420       O  0.03026981  0.96843370  0.53136093    -1.31300
H1421       H  0.45417202  0.95703852  0.95700503     0.31300
O1422       O  0.46743092  0.96969227  0.96944199    -1.32700
O1423       O  0.99774986  0.70001565  0.66321773    -0.88100
O1424       O  0.99723455  0.69991351  0.83692691    -0.88300
O1425       O  0.04758963  0.66232239  0.74793937    -0.90000
O1426       O  0.44932681  0.66395128  0.75197361    -0.88700
O1427       O  0.41285593  0.70173647  0.75269339    -0.88300
O1428       O  0.08465908  0.69951355  0.74630114    -0.89700
O1429       O  0.99671495  0.66244710  0.79984108    -0.88200
O1430       O  0.99654976  0.66262615  0.70034890    -0.87700
Zr1431     Zr  0.99766173  0.68792732  0.75006732     2.84300
O1432       O  0.46972130  0.71987186  0.78173753    -1.09700
O1433       O  0.02806434  0.71876273  0.71842001    -1.10400
C1434       C  0.99737820  0.67168006  0.67212910     1.05000
C1435       C  0.99634031  0.67157940  0.82811215     1.04900
C1436       C  0.07581668  0.67119064  0.74651552     1.07900
C1437       C  0.42125962  0.67324200  0.75282545     1.05700
H1438       H  0.04262343  0.70523236  0.79308766     0.31300
O1439       O  0.02977623  0.71825278  0.78063042    -1.30700
H1440       H  0.45592525  0.70676370  0.70667881     0.30900
O1441       O  0.46901258  0.71939662  0.71931405    -1.32300
O1442       O  0.00174441  0.79986111  0.83695430    -0.88100
O1443       O  0.99828386  0.80078165  0.66354766    -0.89600
O1444       O  0.08653685  0.74882845  0.79786912    -0.88200
O1445       O  0.41519421  0.75250967  0.80105342    -0.88200
O1446       O  0.41429812  0.75162993  0.70066999    -0.88000
O1447       O  0.08356521  0.74996860  0.69835188    -0.87800
O1448       O  0.04865509  0.83704115  0.75059380    -0.88100
O1449       O  0.45211303  0.83835353  0.74898542    -0.87600
O1450       O  0.08528012  0.79940548  0.74937484    -0.88700
O1451       O  0.41494194  0.80123478  0.74931905    -0.87800
O1452       O  0.05043139  0.74982944  0.83605986    -0.88200
O1453       O  0.04635322  0.75038635  0.66129704    -0.87900
O1454       O  0.45097818  0.75083736  0.66308520    -0.87600
O1455       O  0.45229914  0.75133822  0.83821800    -0.88000
O1456       O  0.00056541  0.83720961  0.79990064    -0.88300
O1457       O  0.99751250  0.83787551  0.70113086    -0.89600
Zr1458     Zr  0.99985597  0.74985384  0.81208831     2.83100
Zr1459     Zr  0.99712990  0.75029839  0.68810089     2.83500
Zr1460     Zr  0.05975905  0.74947174  0.74881892     2.84100
Zr1461     Zr  0.43936235  0.75111798  0.75071439     2.83400
Zr1462     Zr  0.99868247  0.81192413  0.75038863     2.84200
O1463       O  0.47035060  0.78158501  0.71946254    -1.10200
O1464       O  0.03008817  0.78075684  0.78059259    -1.09700
C1465       C  0.00156332  0.82816492  0.82808327     1.05000
C1466       C  0.99819914  0.82904147  0.67283060     1.07600
C1467       C  0.07840673  0.74943638  0.82639919     1.05100
C1468       C  0.42414257  0.75220805  0.82934144     1.05500
C1469       C  0.42288901  0.75146013  0.67224773     1.05100
C1470       C  0.07462272  0.75029659  0.67007844     1.04600
C1471       C  0.07677830  0.82786326  0.75015064     1.05100
C1472       C  0.42385676  0.82951027  0.74871804     1.04600
H1473       H  0.04143752  0.79383731  0.70571405     0.31200
O1474       O  0.02880049  0.78101084  0.71856971    -1.31300
H1475       H  0.45824889  0.79496149  0.79423786     0.31300
O1476       O  0.47076701  0.78189103  0.78146898    -1.32700
O1477       O  0.33729996  0.00081939  0.70082427    -0.88100
O1478       O  0.16295928  0.99901136  0.70067582    -0.88300
O1479       O  0.25412969  0.95062804  0.66347864    -0.90000
O1480       O  0.24884236  0.54967013  0.66299533    -0.88700
O1481       O  0.24775626  0.58696587  0.70027216    -0.88300
O1482       O  0.25335527  0.91358097  0.70087652    -0.89700
O1483       O  0.20000982  0.99867966  0.66333728    -0.88200
O1484       O  0.30049936  0.00165662  0.66333747    -0.87700
Zr1485     Zr  0.25026159  0.00049361  0.68840041     2.84300
O1486       O  0.21910893  0.53063899  0.71827337    -1.09700
O1487       O  0.28103067  0.96973584  0.71959910    -1.10400
C1488       C  0.32869439  0.00130820  0.67242326     1.05000
C1489       C  0.17179094  0.99856135  0.67238350     1.04900
C1490       C  0.25459401  0.92241561  0.67264057     1.07900
C1491       C  0.24774774  0.57795130  0.67199836     1.05700
H1492       H  0.20706515  0.95588662  0.70630288     0.31300
O1493       O  0.21946698  0.96896955  0.71917897    -1.30700
H1494       H  0.29350711  0.54430784  0.70677371     0.30900
O1495       O  0.28065990  0.53131951  0.71926128    -1.32300
O1496       O  0.16280983  0.99823702  0.80000667    -0.88100
O1497       O  0.33701360  0.00271649  0.80009906    -0.89600
O1498       O  0.20049355  0.91252115  0.75016161    -0.88200
O1499       O  0.19894141  0.58687983  0.74857840    -0.88200
O1500       O  0.29830060  0.58819100  0.75144987    -0.88000
O1501       O  0.30033370  0.91320514  0.74968591    -0.87800
O1502       O  0.25085046  0.94996442  0.83748343    -0.88100
O1503       O  0.24681312  0.54931188  0.83760275    -0.87600
O1504       O  0.25175864  0.91286645  0.80003437    -0.88700
O1505       O  0.24878621  0.58645683  0.80023476    -0.87800
O1506       O  0.16333595  0.94965268  0.75058910    -0.88200
O1507       O  0.33690184  0.95092646  0.74977706    -0.87900
O1508       O  0.33533066  0.55095030  0.75258326    -0.87600
O1509       O  0.16227696  0.54931298  0.74713317    -0.88000
O1510       O  0.19967485  0.99867211  0.83746312    -0.88300
O1511       O  0.29981682  0.00168675  0.83719723    -0.89600
Zr1512     Zr  0.18824111  0.99978936  0.75030050     2.83100
Zr1513     Zr  0.31155936  0.00100941  0.75049562     2.83500
Zr1514     Zr  0.25044965  0.93840593  0.75053695     2.84100
Zr1515     Zr  0.24895124  0.56188192  0.75003343     2.83400
Zr1516     Zr  0.24972301  0.00006258  0.81244032     2.84200
O1517       O  0.27943887  0.53123720  0.78170009    -1.10200
O1518       O  0.21901553  0.96881967  0.78152665    -1.09700
C1519       C  0.17152087  0.99790987  0.82836168     1.05000
C1520       C  0.32802606  0.00259478  0.82836303     1.07600
C1521       C  0.17219187  0.92131615  0.75042818     1.05100
C1522       C  0.17083545  0.57773854  0.74733378     1.05500
C1523       C  0.32649986  0.57934426  0.75248064     1.05100
C1524       C  0.32842537  0.92244716  0.74935896     1.04600
C1525       C  0.25171005  0.92168971  0.82834665     1.05100
C1526       C  0.24775818  0.57748815  0.82848088     1.04600
H1527       H  0.29427125  0.95686914  0.79438546     0.31200
O1528       O  0.28128707  0.96947042  0.78164880    -1.31300
H1529       H  0.20447828  0.54369659  0.79303251     0.31300
O1530       O  0.21760664  0.53096086  0.78054588    -1.32700
O1531       O  0.20202018  0.66166633  0.00038788    -0.88100
O1532       O  0.19915309  0.83608242  0.99681029    -0.88300
O1533       O  0.16256007  0.74937953  0.54947015    -0.90000
O1534       O  0.16481140  0.74984283  0.94740283    -0.88700
O1535       O  0.20231417  0.74912655  0.91058482    -0.88300
O1536       O  0.19889640  0.75029320  0.58738955    -0.89700
O1537       O  0.16272353  0.79823782  0.99658588    -0.88200
O1538       O  0.16465379  0.69854034  0.99839417    -0.87700
Zr1539     Zr  0.18881630  0.74887113  0.99814373     2.84300
O1540       O  0.21977084  0.78014128  0.96765188    -1.09700
O1541       O  0.21949919  0.71856826  0.53124909    -1.10400
C1542       C  0.17375177  0.67032406  0.99951870     1.05000
C1543       C  0.17108612  0.82669583  0.99617088     1.04900
C1544       C  0.17082232  0.74991231  0.57795417     1.07900
C1545       C  0.17398003  0.74976469  0.91913948     1.05700
H1546       H  0.20533548  0.79374957  0.54425992     0.31300
O1547       O  0.21833522  0.78102305  0.53162089    -1.30700
H1548       H  0.20804342  0.70488315  0.95486192     0.30900
O1549       O  0.22046087  0.71787394  0.96781705    -1.32300
O1550       O  0.29854925  0.83786024  0.00247177    -0.88100
O1551       O  0.30220434  0.66452503  0.99962933    -0.89600
O1552       O  0.25003614  0.79991684  0.58828555    -0.88200
O1553       O  0.25257913  0.79871114  0.91189006    -0.88200
O1554       O  0.25332019  0.69900298  0.91277159    -0.88000
O1555       O  0.24763396  0.70016312  0.58752353    -0.87800
O1556       O  0.33624590  0.75176379  0.55104175    -0.88100
O1557       O  0.33786586  0.75219400  0.95091227    -0.87600
O1558       O  0.29928841  0.75142608  0.58836850    -0.88700
O1559       O  0.30159020  0.75018418  0.91294686    -0.87800
O1560       O  0.25055375  0.83711968  0.55100765    -0.88200
O1561       O  0.24955042  0.66302054  0.55010317    -0.87900
O1562       O  0.25098331  0.66193140  0.95018490    -0.87600
O1563       O  0.25141582  0.83584865  0.94933669    -0.88000
O1564       O  0.33625661  0.80133092  0.00322443    -0.88300
O1565       O  0.33885228  0.70216318  0.00038218    -0.89600
Zr1566     Zr  0.24939531  0.81151304  0.99957305     2.83100
Zr1567     Zr  0.25147035  0.68777570  0.99972177     2.83500
Zr1568     Zr  0.24932794  0.75017461  0.56277648     2.84100
Zr1569     Zr  0.25161200  0.74920797  0.93746459     2.83400
Zr1570     Zr  0.31206863  0.75094838  0.00071340     2.84200
O1571       O  0.28263620  0.71890617  0.96906167    -1.10200
O1572       O  0.28008758  0.78155241  0.53207246    -1.09700
C1573       C  0.32685637  0.82948031  0.00376675     1.05000
C1574       C  0.33027653  0.67380041  0.99998901     1.07600
C1575       C  0.25093991  0.82817900  0.57931913     1.05100
C1576       C  0.25238165  0.82694375  0.92101845     1.05500
C1577       C  0.25197780  0.67081947  0.92191869     1.05100
C1578       C  0.24801493  0.67190512  0.57841092     1.04600
C1579       C  0.32750813  0.75188927  0.57938336     1.05100
C1580       C  0.32953864  0.75155455  0.92240126     1.04600
H1581       H  0.29385067  0.70658683  0.54500046     0.31200
O1582       O  0.28103292  0.71924154  0.53214062    -1.31300
H1583       H  0.29429389  0.79422466  0.95658184     0.31300
O1584       O  0.28140029  0.78118179  0.96895498    -1.32700
C1585       C  0.24245012  0.63295526  0.65596466    -0.15000
C1586       C  0.24664409  0.60192100  0.64801747     0.07200
C1587       C  0.25020576  0.59403742  0.61691173    -0.15000
C1588       C  0.25029507  0.61670668  0.59432486    -0.15000
C1589       C  0.24681362  0.64780744  0.60230119     0.07200
C1590       C  0.24253853  0.65564527  0.63335795    -0.15000
H1591       H  0.23929362  0.63980720  0.67968291     0.11200
H1592       H  0.25337584  0.57035274  0.60995895     0.11200
H1593       H  0.25351536  0.60981984  0.57062971     0.11200
H1594       H  0.23945297  0.67934717  0.64029439     0.11200
C1595       C  0.26080228  0.90555096  0.61802083    -0.15000
C1596       C  0.25570727  0.89814708  0.64898339     0.07200
C1597       C  0.25015993  0.86738160  0.65701668    -0.15000
C1598       C  0.24867734  0.84467474  0.63445300    -0.15000
C1599       C  0.25286428  0.85218924  0.60334503     0.07200
C1600       C  0.25933415  0.88282053  0.59543686    -0.15000
H1601       H  0.26553977  0.92897296  0.61113897     0.11200
H1602       H  0.24620430  0.86086198  0.68068839     0.11200
H1603       H  0.24380588  0.82130007  0.64138982     0.11200
H1604       H  0.26318120  0.88931146  0.57174525     0.11200
C1605       C  0.24668294  0.90465627  0.88294189    -0.15000
C1606       C  0.25270549  0.89745879  0.85208500     0.07200
C1607       C  0.25938065  0.86684110  0.84410133    -0.15000
C1608       C  0.25959536  0.84389041  0.86647458    -0.15000
C1609       C  0.25312049  0.85110952  0.89727668     0.07200
C1610       C  0.24688342  0.88175607  0.90526218    -0.15000
H1611       H  0.24137123  0.92796029  0.88985633     0.11200
H1612       H  0.26442893  0.86056673  0.82055517     0.11200
H1613       H  0.26478437  0.82053373  0.85961881     0.11200
H1614       H  0.24169298  0.88808244  0.92876055     0.11200
C1615       C  0.23276310  0.59722901  0.88018252    -0.15000
C1616       C  0.24815977  0.60147791  0.85222375     0.07200
C1617       C  0.26458188  0.62869729  0.84722439    -0.15000
C1618       C  0.26592885  0.65122827  0.86997306    -0.15000
C1619       C  0.25086862  0.64687906  0.89808040     0.07200
C1620       C  0.23410498  0.61979961  0.90296447    -0.15000
H1621       H  0.21956801  0.57658317  0.88430221     0.11200
H1622       H  0.27685321  0.63230252  0.82591584     0.11200
H1623       H  0.27907125  0.67188444  0.86576170     0.11200
H1624       H  0.22177607  0.61626968  0.92425066     0.11200
C1625       C  0.36609536  0.65722384  0.75840808    -0.15000
C1626       C  0.39692892  0.64930961  0.75365238     0.07200
C1627       C  0.40430419  0.61816300  0.74920699    -0.15000
C1628       C  0.38153007  0.59561752  0.74907565    -0.15000
C1629       C  0.35065508  0.60349712  0.75337182     0.07200
C1630       C  0.34325380  0.63461609  0.75825269    -0.15000
H1631       H  0.35954458  0.68092312  0.76217657     0.11200
H1632       H  0.42773123  0.61112388  0.74542264     0.11200
H1633       H  0.38817131  0.57196312  0.74520327     0.11200
H1634       H  0.31978101  0.64155489  0.76194334     0.11200
C1635       C  0.36852579  0.84491189  0.74718734    -0.15000
C1636       C  0.39957008  0.85340813  0.74791002     0.07200
C1637       C  0.40694320  0.88483294  0.74829555    -0.15000
C1638       C  0.38390138  0.90713606  0.74858746    -0.15000
C1639       C  0.35285886  0.89864047  0.74846989     0.07200
C1640       C  0.34550344  0.86719554  0.74749881    -0.15000
H1641       H  0.36188285  0.82095213  0.74662127     0.11200
H1642       H  0.43054431  0.89227344  0.74865826     0.11200
H1643       H  0.39050153  0.93110298  0.74911839     0.11200
H1644       H  0.32191588  0.85970514  0.74714221     0.11200
C1645       C  0.13118236  0.65549550  0.74594098    -0.15000
C1646       C  0.10007910  0.64719681  0.74551085     0.07200
C1647       C  0.09255050  0.61579496  0.74480167    -0.15000
C1648       C  0.11544852  0.59332921  0.74513791    -0.15000
C1649       C  0.14652177  0.60163912  0.74619040     0.07200
C1650       C  0.15406070  0.63304768  0.74631589    -0.15000
H1651       H  0.13796344  0.67941703  0.74636299     0.11200
H1652       H  0.06891236  0.60848956  0.74425284     0.11200
H1653       H  0.10870934  0.56939545  0.74481558     0.11200
H1654       H  0.17768878  0.64038951  0.74693809     0.11200
C1655       C  0.09384573  0.88312235  0.75281060    -0.15000
C1656       C  0.10120600  0.85174792  0.75044817     0.07200
C1657       C  0.13223279  0.84344896  0.74828145    -0.15000
C1658       C  0.15522060  0.86587378  0.74830111    -0.15000
C1659       C  0.14785799  0.89726145  0.75051789     0.07200
C1660       C  0.11681249  0.90552831  0.75282686    -0.15000
H1661       H  0.07028156  0.89047031  0.75465485     0.11200
H1662       H  0.13885741  0.81954983  0.74643704     0.11200
H1663       H  0.17879142  0.85855878  0.74646710     0.11200
H1664       H  0.11013944  0.92941242  0.75469800     0.11200
C1665       C  0.36759524  0.75373030  0.65690308    -0.15000
C1666       C  0.39856912  0.75188636  0.64842742     0.07200
C1667       C  0.40593638  0.75037918  0.61701797    -0.15000
C1668       C  0.38292601  0.75060769  0.59472183    -0.15000
C1669       C  0.35190579  0.75227692  0.60320781     0.07200
C1670       C  0.34458189  0.75394098  0.63460624    -0.15000
H1671       H  0.36101465  0.75498899  0.68085139     0.11200
H1672       H  0.42949894  0.74889834  0.60957793     0.11200
H1673       H  0.38952859  0.74926492  0.57078245     0.11200
H1674       H  0.32101814  0.75534045  0.64203871     0.11200
C1675       C  0.12994653  0.75159790  0.65496075    -0.15000
C1676       C  0.09897334  0.75060558  0.64623534     0.07200
C1677       C  0.09184158  0.74970226  0.61476136    -0.15000
C1678       C  0.11510700  0.74950598  0.59265815    -0.15000
C1679       C  0.14609890  0.75025570  0.60145167     0.07200
C1680       C  0.15315015  0.75140927  0.63291505    -0.15000
H1681       H  0.13642181  0.75244693  0.67895601     0.11200
H1682       H  0.06829786  0.74898420  0.60715736     0.11200
H1683       H  0.10873479  0.74867524  0.56863502     0.11200
H1684       H  0.17666093  0.75212252  0.64061648     0.11200
C1685       C  0.13288197  0.74008489  0.84249844    -0.15000
C1686       C  0.10309450  0.74986571  0.84982333     0.07200
C1687       C  0.09716762  0.76036793  0.87976684    -0.15000
C1688       C  0.12026536  0.76065131  0.90198068    -0.15000
C1689       C  0.14994145  0.75039687  0.89490593     0.07200
C1690       C  0.15604593  0.74037091  0.86477209    -0.15000
H1691       H  0.13821224  0.73179990  0.81964224     0.11200
H1692       H  0.07465205  0.76856783  0.88604247     0.11200
H1693       H  0.11484852  0.76900394  0.92478795     0.11200
H1694       H  0.17859262  0.73223849  0.85854080     0.11200
C1695       C  0.40764384  0.74955522  0.88455088    -0.15000
C1696       C  0.40012968  0.75284029  0.85332336     0.07200
C1697       C  0.36926055  0.75637143  0.84511279    -0.15000
C1698       C  0.34643082  0.75616995  0.86749771    -0.15000
C1699       C  0.35387658  0.75246344  0.89870095     0.07200
C1700       C  0.38478496  0.74939739  0.90696910    -0.15000
H1701       H  0.43117175  0.74678175  0.89171497     0.11200
H1702       H  0.36261713  0.75918770  0.82131696     0.11200
H1703       H  0.32291048  0.75887849  0.86028079     0.11200
H1704       H  0.39135577  0.74649937  0.93077198     0.11200
C1705       C  0.40547654  0.86667457  0.49842708    -0.15000
C1706       C  0.39810932  0.89806135  0.49988608     0.07200
C1707       C  0.36712141  0.90656774  0.50179487    -0.15000
C1708       C  0.34413453  0.88427608  0.50245110    -0.15000
C1709       C  0.35152492  0.85289257  0.50116863     0.07200
C1710       C  0.38250293  0.84439463  0.49909976    -0.15000
H1711       H  0.42902901  0.85923487  0.49682571     0.11200
H1712       H  0.36052437  0.93051895  0.50290710     0.11200
H1713       H  0.32057039  0.89168952  0.50399937     0.11200
H1714       H  0.38911681  0.82044996  0.49791127     0.11200
C1715       C  0.40780498  0.63535623  0.50217574    -0.15000
C1716       C  0.39993958  0.60402757  0.50058571     0.07200
C1717       C  0.36893683  0.59604698  0.49797262    -0.15000
C1718       C  0.34635330  0.61864922  0.49720185    -0.15000
C1719       C  0.35406755  0.64991721  0.49917591     0.07200
C1720       C  0.38513344  0.65804350  0.50142777    -0.15000
H1721       H  0.43145721  0.64239331  0.50410996     0.11200
H1722       H  0.36197773  0.57222182  0.49647367     0.11200
H1723       H  0.32274605  0.61149330  0.49521158     0.11200
H1724       H  0.39196773  0.68191342  0.50289704     0.11200
C1725       C  0.09209528  0.86387078  0.49945814    -0.15000
C1726       C  0.09976149  0.89526807  0.49938362     0.07200
C1727       C  0.13078885  0.90358244  0.49856612    -0.15000
C1728       C  0.15358179  0.88122887  0.49794635    -0.15000
C1729       C  0.14603792  0.84989330  0.49826292     0.07200
C1730       C  0.11498116  0.84142879  0.49884615    -0.15000
H1731       H  0.06844396  0.85659728  0.50003616     0.11200
H1732       H  0.13761998  0.92748829  0.49842735     0.11200
H1733       H  0.17719230  0.88862375  0.49740401     0.11200
H1734       H  0.10829729  0.81747341  0.49905662     0.11200
C1735       C  0.13229382  0.59509453  0.48697375    -0.15000
C1736       C  0.10359928  0.60078063  0.50035197     0.07200
C1737       C  0.09807748  0.62957728  0.51388060    -0.15000
C1738       C  0.12070004  0.65224605  0.51398167    -0.15000
C1739       C  0.14937529  0.64660985  0.50057469     0.07200
C1740       C  0.15495047  0.61779678  0.48707777    -0.15000
H1741       H  0.13707709  0.57323503  0.47606461     0.11200
H1742       H  0.07631702  0.63448990  0.52467228     0.11200
H1743       H  0.11584409  0.67412270  0.52482805     0.11200
H1744       H  0.17669709  0.61296037  0.47622935     0.11200
C1745       C  0.40433377  0.50124646  0.86656700    -0.15000
C1746       C  0.39689748  0.50056116  0.89797263     0.07200
C1747       C  0.36590208  0.50044516  0.90653669    -0.15000
C1748       C  0.34289996  0.50080124  0.88427833    -0.15000
C1749       C  0.35033481  0.50129495  0.85290323     0.07200
C1750       C  0.38136123  0.50163909  0.84433646    -0.15000
H1751       H  0.42792381  0.50148664  0.85907291     0.11200
H1752       H  0.35931414  0.49998417  0.93050692     0.11200
H1753       H  0.31929420  0.50057508  0.89170467     0.11200
H1754       H  0.38802818  0.50209301  0.82038156     0.11200
C1755       C  0.13047822  0.49975720  0.90384369    -0.15000
C1756       C  0.09937381  0.50080925  0.89578421     0.07200
C1757       C  0.09153547  0.50189379  0.86445287    -0.15000
C1758       C  0.11426694  0.50142631  0.84180983    -0.15000
C1759       C  0.14535263  0.49996309  0.84998814     0.07200
C1760       C  0.15311162  0.49930371  0.88129725    -0.15000
H1761       H  0.13748846  0.49910061  0.92768926     0.11200
H1762       H  0.06784315  0.50292247  0.85737779     0.11200
H1763       H  0.10743947  0.50218858  0.81791093     0.11200
H1764       H  0.17676180  0.49833509  0.88852628     0.11200
C1765       C  0.09467142  0.50387943  0.63277222    -0.15000
C1766       C  0.10185945  0.49905555  0.60168058     0.07200
C1767       C  0.13252169  0.49389834  0.59346156    -0.15000
C1768       C  0.15549483  0.49377495  0.61574504    -0.15000
C1769       C  0.14835913  0.49881950  0.64679157     0.07200
C1770       C  0.11762769  0.50375914  0.65504138    -0.15000
H1771       H  0.07133026  0.50798580  0.63993798     0.11200
H1772       H  0.13884762  0.48983486  0.56975165     0.11200
H1773       H  0.17883673  0.48964199  0.60861912     0.11200
H1774       H  0.11123546  0.50778432  0.67874399     0.11200
C1775       C  0.36871486  0.50575932  0.59668775    -0.15000
C1776       C  0.39953261  0.50117878  0.60441864     0.07200
C1777       C  0.40731504  0.49685101  0.63549020    -0.15000
C1778       C  0.38470728  0.49683641  0.65820425    -0.15000
C1779       C  0.35381969  0.50113153  0.65032633     0.07200
C1780       C  0.34617978  0.50573004  0.61932568    -0.15000
H1781       H  0.36189385  0.50940151  0.57306024     0.11200
H1782       H  0.43083674  0.49319032  0.64227499     0.11200
H1783       H  0.39142259  0.49317725  0.68186467     0.11200
H1784       H  0.32268926  0.50935503  0.61243143     0.11200
C1785       C  0.99528755  0.63402616  0.90661786    -0.15000
C1786       C  0.99557860  0.60266964  0.89895467     0.07200
C1787       C  0.49675261  0.59408448  0.86598318    -0.15000
C1788       C  0.49683040  0.61710455  0.84375072    -0.15000
C1789       C  0.99514408  0.64783234  0.85241668     0.07200
C1790       C  0.99502637  0.65633751  0.88362059    -0.15000
H1791       H  0.99553371  0.64140531  0.93038750     0.11200
H1792       H  0.49715963  0.57033301  0.85855253     0.11200
H1793       H  0.49728256  0.61037670  0.81979515     0.11200
H1794       H  0.99509846  0.68028925  0.89037883     0.11200
C1795       C  0.00016656  0.86655708  0.90598696    -0.15000
C1796       C  0.99936659  0.89781085  0.89797711     0.07200
C1797       C  0.49445467  0.90592388  0.86719892    -0.15000
C1798       C  0.49575813  0.88330757  0.84453913    -0.15000
C1799       C  0.00188653  0.85212336  0.85209504     0.07200
C1800       C  0.00148349  0.84397436  0.88330341    -0.15000
H1801       H  0.99972944  0.85944913  0.92981199     0.11200
H1802       H  0.49107295  0.92956043  0.86024872     0.11200
H1803       H  0.49320176  0.89012456  0.82076177     0.11200
H1804       H  0.00184559  0.82011080  0.89029388     0.11200
C1805       C  0.98663314  0.90476799  0.63199766    -0.15000
C1806       C  0.00127287  0.89926546  0.60380661     0.07200
C1807       C  0.49432371  0.90471099  0.63179673    -0.15000
C1808       C  0.49462314  0.88229004  0.65465790    -0.15000
C1809       C  0.99948866  0.85328393  0.64925707     0.07200
C1810       C  0.98572101  0.88196561  0.65452299    -0.15000
H1811       H  0.97519879  0.92642141  0.63630859     0.11200
H1812       H  0.49074263  0.92840963  0.63849026     0.11200
H1813       H  0.49121941  0.88933796  0.67828173     0.11200
H1814       H  0.97371454  0.88653046  0.67580898     0.11200
C1815       C  0.00922424  0.63212880  0.59563951    -0.15000
C1816       C  0.00142751  0.60163631  0.60265674     0.07200
C1817       C  0.50246406  0.63281723  0.59467952    -0.15000
C1818       C  0.50141046  0.65570403  0.61709445    -0.15000
C1819       C  0.99836499  0.64764783  0.64816181     0.07200
C1820       C  0.00765910  0.65490589  0.61814691    -0.15000
H1821       H  0.01657532  0.63842878  0.57273952     0.11200
H1822       H  0.50394933  0.63965465  0.57081543     0.11200
H1823       H  0.50223739  0.67948677  0.60986805     0.11200
H1824       H  0.01401587  0.67816385  0.61207854     0.11200
O1825       O  0.50317095  0.05048353  0.08653979    -0.88100
O1826       O  0.49813387  0.05026354  0.41326899    -0.88300
O1827       O  0.55037117  0.08670827  0.99861482    -0.90000
O1828       O  0.95117776  0.08812835  0.00059590    -0.88700
O1829       O  0.91368136  0.05137559  0.00128692    -0.88300
O1830       O  0.58698827  0.04902097  0.99854587    -0.89700
O1831       O  0.50002473  0.08757757  0.45049617    -0.88200
O1832       O  0.50457119  0.08766063  0.04921565    -0.87700
Zr1833     Zr  0.50062932  0.06196787  0.99997318     2.84300
O1834       O  0.96899187  0.03102629  0.46874635    -1.09700
O1835       O  0.53169977  0.03067620  0.03032256    -1.10400
C1836       C  0.50459848  0.07868185  0.07742713     1.05000
C1837       C  0.49881293  0.07854994  0.42221707     1.04900
C1838       C  0.57840571  0.07747460  0.99855126     1.07900
C1839       C  0.92286058  0.07964262  0.00083430     1.05700
H1840       H  0.54371669  0.04425945  0.45522542     0.31300
O1841       O  0.53117738  0.03136141  0.46811654    -1.30700
H1842       H  0.95738788  0.04429978  0.04510498     0.30900
O1843       O  0.96968027  0.03121686  0.03212534    -1.32300
O1844       O  0.50030282  0.44980782  0.41340145    -0.88100
O1845       O  0.50067544  0.45101210  0.08751358    -0.89600
O1846       O  0.58597858  0.00010515  0.44764914    -0.88200
O1847       O  0.91229354  0.99962980  0.45072141    -0.88200
O1848       O  0.91449987  0.00156963  0.05186130    -0.88000
O1849       O  0.58812252  0.99814670  0.04721820    -0.87800
O1850       O  0.54796057  0.41213962  0.99773065    -0.88100
O1851       O  0.94913802  0.41351906  0.00184531    -0.87600
O1852       O  0.58522114  0.44921154  0.99724735    -0.88700
O1853       O  0.91268644  0.45132032  0.00275437    -0.87800
O1854       O  0.54852719  0.00012129  0.41083086    -0.88200
O1855       O  0.55178636  0.99898725  0.08517761    -0.87900
O1856       O  0.95198169  0.00069059  0.08869254    -0.87600
O1857       O  0.94917614  0.00016637  0.41334613    -0.88000
O1858       O  0.50040080  0.41254783  0.45058588    -0.88300
O1859       O  0.49898328  0.41367900  0.05032273    -0.89600
Zr1860     Zr  0.49968822  0.00015139  0.43768860     2.83100
Zr1861     Zr  0.50097519  0.00032712  0.06195376     2.83500
Zr1862     Zr  0.56119060  0.99917974  0.99847828     2.84100
Zr1863     Zr  0.93798498  0.00075233  0.00133126     2.83400
Zr1864     Zr  0.49876613  0.43832352  0.00034412     2.84200
O1865       O  0.96958126  0.46930546  0.03237560    -1.10200
O1866       O  0.53022892  0.46832121  0.46910357    -1.09700
C1867       C  0.50070404  0.42148360  0.42231462     1.05000
C1868       C  0.49973226  0.42267897  0.07857584     1.04000
C1869       C  0.57679247  0.00012348  0.41939731     1.05100
C1870       C  0.92103565  0.00005569  0.42237885     1.05500
C1871       C  0.92376667  0.00148560  0.08002861     1.05100
C1872       C  0.57979873  0.99825476  0.07567078     1.04600
C1873       C  0.57614627  0.42096934  0.99695326     1.05100
C1874       C  0.92112518  0.42289167  0.00269303     1.04600
H1875       H  0.54375096  0.45604574  0.04313050     0.31200
O1876       O  0.53091266  0.46892043  0.03051731    -1.31300
H1877       H  0.95548465  0.45670083  0.45613088     0.31300
O1878       O  0.96842874  0.46934489  0.46890622    -1.32700
O1879       O  0.50291467  0.20091829  0.16135088    -0.88100
O1880       O  0.50074699  0.19914909  0.33603245    -0.88300
O1881       O  0.55044531  0.16314389  0.24759520    -0.90000
O1882       O  0.95050233  0.16327896  0.25100845    -0.88700
O1883       O  0.91379808  0.20074788  0.25345479    -0.88300
O1884       O  0.58721436  0.20069080  0.24745929    -0.89700
O1885       O  0.50012686  0.16181736  0.29876803    -0.88200
O1886       O  0.50156252  0.16356364  0.19850980    -0.87700
Zr1887     Zr  0.50015539  0.18753699  0.24910406     2.84300
O1888       O  0.97019203  0.21930369  0.28114730    -1.09700
O1889       O  0.53048348  0.21911322  0.21835061    -1.10400
C1890       C  0.50301167  0.17268512  0.17030071     1.05000
C1891       C  0.50035330  0.17087544  0.32707106     1.04900
C1892       C  0.57856593  0.17232519  0.24705733     1.07900
C1893       C  0.92245315  0.17236423  0.25293676     1.05700
H1894       H  0.54418439  0.20552702  0.29272991     0.31300
O1895       O  0.53122938  0.21838954  0.28022873    -1.30700
H1896       H  0.95601343  0.20659733  0.20606740     0.30900
O1897       O  0.96893952  0.21938972  0.21871592    -1.32300
O1898       O  0.50116992  0.29901917  0.33708550    -0.88100
O1899       O  0.49818068  0.29954138  0.16215608    -0.89600
O1900       O  0.58738412  0.24952137  0.29883707    -0.88200
O1901       O  0.91541157  0.25018819  0.30147343    -0.88200
O1902       O  0.91294410  0.24991949  0.20131017    -0.88000
O1903       O  0.58577881  0.24958308  0.19905588    -0.87800
O1904       O  0.54886585  0.33764177  0.25078507    -0.88100
O1905       O  0.95153561  0.33765142  0.25082486    -0.87600
O1906       O  0.58591408  0.30041942  0.25050320    -0.88700
O1907       O  0.91438268  0.30049341  0.25064608    -0.87800
O1908       O  0.55063546  0.24885601  0.33637400    -0.88200
O1909       O  0.54867106  0.24963144  0.16188007    -0.87900
O1910       O  0.94952981  0.25092375  0.16362018    -0.87600
O1911       O  0.95251950  0.24974504  0.33866881    -0.88000
O1912       O  0.50001193  0.33638944  0.29999283    -0.88300
O1913       O  0.49921162  0.33650230  0.19976647    -0.89600
Zr1914     Zr  0.50044454  0.24919626  0.31162728     2.83100
Zr1915     Zr  0.49925964  0.24992443  0.18768323     2.83500
Zr1916     Zr  0.56139710  0.25011053  0.24926176     2.84100
Zr1917     Zr  0.93918728  0.25050436  0.25083302     2.83400
Zr1918     Zr  0.49956938  0.31146553  0.24988273     2.84200
O1919       O  0.96954614  0.28177001  0.21958888    -1.10200
O1920       O  0.53079507  0.28074295  0.28073333    -1.09700
C1921       C  0.50085000  0.32735194  0.32825249     1.05000
C1922       C  0.49864342  0.32775714  0.17136902     1.07600
C1923       C  0.57877812  0.24910424  0.32724826     1.05100
C1924       C  0.92433993  0.24984381  0.32977851     1.05500
C1925       C  0.92145165  0.25044748  0.17285111     1.05100
C1926       C  0.57684039  0.24935474  0.17077447     1.04600
C1927       C  0.57705668  0.32875073  0.25102255     1.05100
C1928       C  0.92329093  0.32878853  0.25071831     1.04600
H1929       H  0.54312510  0.29407300  0.20549567     0.31200
O1930       O  0.53051925  0.28114226  0.21828721    -1.31300
H1931       H  0.95797829  0.29435473  0.29474768     0.31300
O1932       O  0.97041689  0.28145784  0.28171738    -1.32700
O1933       O  0.83762737  0.50001272  0.20114859    -0.88100
O1934       O  0.66420205  0.49946321  0.19894939    -0.88300
O1935       O  0.75213696  0.44962371  0.16382968    -0.90000
O1936       O  0.75126272  0.05009038  0.16204703    -0.88700
O1937       O  0.75064371  0.08724872  0.19943644    -0.88300
O1938       O  0.75203918  0.41246056  0.20114347    -0.89700
O1939       O  0.70149295  0.50032631  0.16190607    -0.88200
O1940       O  0.80116893  0.49878023  0.16326509    -0.87700
Zr1941     Zr  0.75088025  0.49985485  0.18802419     2.84300
O1942       O  0.72017152  0.03167636  0.21746846    -1.09700
O1943       O  0.78120162  0.46884909  0.21946553    -1.10400
C1944       C  0.82920718  0.49918287  0.17274761     1.05000
C1945       C  0.67325266  0.49993296  0.17064734     1.04900
C1946       C  0.75245414  0.42138985  0.17287406     1.07900
C1947       C  0.75067428  0.07833599  0.17112707     1.05700
H1948       H  0.70709050  0.45570490  0.20588297     0.31300
O1949       O  0.71965855  0.46865488  0.21873372    -1.30700
H1950       H  0.79506822  0.04441586  0.20613329     0.30900
O1951       O  0.78208491  0.03154650  0.21860229    -1.32300
O1952       O  0.66301119  0.50003828  0.29932336    -0.88100
O1953       O  0.83655944  0.50138722  0.30030541    -0.89600
O1954       O  0.70020004  0.41286747  0.25077339    -0.88200
O1955       O  0.70105451  0.08785898  0.24783448    -0.88200
O1956       O  0.80001009  0.08789464  0.25161272    -0.88000
O1957       O  0.80017466  0.41292369  0.25118581    -0.87800
O1958       O  0.74902246  0.45138535  0.33794993    -0.88100
O1959       O  0.75064453  0.05031328  0.33647650    -0.87600
O1960       O  0.74808009  0.41387980  0.30093499    -0.88700
O1961       O  0.75155976  0.08758682  0.29924735    -0.87800
O1962       O  0.66328985  0.45022917  0.25031391    -0.88200
O1963       O  0.83698532  0.45037959  0.25005392    -0.87900
O1964       O  0.83679376  0.05040874  0.25215483    -0.87600
O1965       O  0.66404981  0.05062560  0.24602898    -0.88000
O1966       O  0.69983514  0.50030531  0.33679896    -0.88300
O1967       O  0.79951581  0.50221095  0.33757259    -0.89600
Zr1968     Zr  0.68862909  0.49987418  0.24947770     2.83100
Zr1969     Zr  0.81158684  0.50015484  0.25043576     2.83500
Zr1970     Zr  0.75021718  0.43812730  0.25064448     2.84100
Zr1971     Zr  0.75060121  0.06229645  0.24933565     2.83400
Zr1972     Zr  0.74983580  0.50061102  0.31198495     2.84200
O1973       O  0.78071206  0.03117925  0.28078138    -1.10200
O1974       O  0.71912532  0.46928634  0.28113442    -1.09700
C1975       C  0.67169884  0.50008212  0.32773002     1.05000
C1976       C  0.82768342  0.50211435  0.32858907     1.07600
C1977       C  0.67201041  0.42190115  0.25081398     1.05100
C1978       C  0.67291823  0.07893346  0.24650767     1.05500
C1979       C  0.82809446  0.07881093  0.25256647     1.05100
C1980       C  0.82832903  0.42200500  0.25055307     1.04600
C1981       C  0.74799694  0.42307744  0.32917390     1.05100
C1982       C  0.75153385  0.07861401  0.32752146     1.04600
H1983       H  0.79379002  0.45644669  0.29482365     0.31200
O1984       O  0.78110696  0.46908340  0.28181434    -1.31300
H1985       H  0.70614217  0.04462656  0.29236316     0.31300
O1986       O  0.71898604  0.03164259  0.27982835    -1.32700
O1987       O  0.70118994  0.16357051  0.50103197    -0.88100
O1988       O  0.69987495  0.33742148  0.50090360    -0.88300
O1989       O  0.66249240  0.24997859  0.04917251    -0.90000
O1990       O  0.66416511  0.25034299  0.44961460    -0.88700
O1991       O  0.70125804  0.25082096  0.41239555    -0.88300
O1992       O  0.69924221  0.25004676  0.08670825    -0.89700
O1993       O  0.66334157  0.29970292  0.50027914    -0.88200
O1994       O  0.66389926  0.20057146  0.50072498    -0.87700
Zr1995     Zr  0.68904300  0.25015395  0.49984015     2.84300
O1996       O  0.71949684  0.28159858  0.46907662    -1.09700
O1997       O  0.71862946  0.21933216  0.03089788    -1.10400
C1998       C  0.67291808  0.17235734  0.50133227     1.05000
C1999       C  0.67183925  0.32811213  0.50050641     1.04900
C2000       C  0.67115138  0.24979413  0.07753889     1.07900
C2001       C  0.67305155  0.25051869  0.42126893     1.05700
H2002       H  0.70504544  0.29440188  0.04357618     0.31300
O2003       O  0.71801126  0.28168536  0.03089255    -1.30700
H2004       H  0.70739216  0.20652565  0.45553195     0.30900
O2005       O  0.71999137  0.21941242  0.46841449    -1.32300
O2006       O  0.79842135  0.33915182  0.50258866    -0.88100
O2007       O  0.80175826  0.16477069  0.49723851    -0.89600
O2008       O  0.75008255  0.30002238  0.08737166    -0.88200
O2009       O  0.74921829  0.30130091  0.41380952    -0.88200
O2010       O  0.75255580  0.20122447  0.41229993    -0.88000
O2011       O  0.74851320  0.20080337  0.08703450    -0.87800
O2012       O  0.83611171  0.25234763  0.05059504    -0.88100
O2013       O  0.83769789  0.25256531  0.45068712    -0.87600
O2014       O  0.79890099  0.25124404  0.08760131    -0.88700
O2015       O  0.80102154  0.25062953  0.41312006    -0.87800
O2016       O  0.74863525  0.33732629  0.05022260    -0.88200
O2017       O  0.74922869  0.16360161  0.04970604    -0.87900
O2018       O  0.75165864  0.16380445  0.44937685    -0.87600
O2019       O  0.74846598  0.33825888  0.45140968    -0.88000
O2020       O  0.83570925  0.30218342  0.50236815    -0.88300
O2021       O  0.83852545  0.20230460  0.49742721    -0.89600
Zr2022     Zr  0.74969301  0.31243888  0.50084108     2.83100
Zr2023     Zr  0.75125725  0.18874453  0.49934828     2.83500
Zr2024     Zr  0.74914461  0.25065180  0.06187801     2.84100
Zr2025     Zr  0.75091449  0.25104969  0.43802045     2.83400
Zr2026     Zr  0.81217680  0.25155645  0.50025716     2.84200
O2027       O  0.78191688  0.22033927  0.46890576    -1.10200
O2028       O  0.77950520  0.28236898  0.03125492    -1.09700
C2029       C  0.82660392  0.33041521  0.50298618     1.05000
C2030       C  0.82988974  0.17391921  0.49659370     1.07600
C2031       C  0.74971711  0.32826402  0.07850017     1.05100
C2032       C  0.74828247  0.32950154  0.42305175     1.05500
C2033       C  0.75239173  0.17288341  0.42115385     1.05100
C2034       C  0.74862301  0.17252782  0.07797847     1.04600
C2035       C  0.82715968  0.25191379  0.07887130     1.05100
C2036       C  0.82913028  0.25146669  0.42232444     1.04600
H2037       H  0.79349225  0.20717045  0.04440336     0.31200
O2038       O  0.78068637  0.21980814  0.03152076    -1.31300
H2039       H  0.79390632  0.29578640  0.45663879     0.31300
O2040       O  0.78133335  0.28260737  0.46921236    -1.32700
C2041       C  0.74553791  0.13335914  0.15541690    -0.15000
C2042       C  0.74978745  0.10239184  0.14725833     0.07200
C2043       C  0.75286910  0.09463469  0.11606864    -0.15000
C2044       C  0.75213648  0.11737940  0.09358499    -0.15000
C2045       C  0.74836717  0.14840220  0.10178110     0.07200
C2046       C  0.74481966  0.15611424  0.13292534    -0.15000
H2047       H  0.74273971  0.14009710  0.17921080     0.11200
H2048       H  0.75607329  0.07099747  0.10896497     0.11200
H2049       H  0.75486914  0.11061130  0.06979113     0.11200
H2050       H  0.74157408  0.17975347  0.14000136     0.11200
C2051       C  0.74937740  0.40569516  0.11779741    -0.15000
C2052       C  0.75272477  0.39748466  0.14882368     0.07200
C2053       C  0.75546233  0.36628473  0.15656278    -0.15000
C2054       C  0.75446572  0.34378388  0.13374336    -0.15000
C2055       C  0.75076432  0.35203316  0.10271296     0.07200
C2056       C  0.74835406  0.38323516  0.09502207    -0.15000
H2057       H  0.74715662  0.42951792  0.11102261     0.11200
H2058       H  0.75822630  0.35919016  0.18023932     0.11200
H2059       H  0.75659218  0.31993704  0.14047511     0.11200
H2060       H  0.74549767  0.39039199  0.07138134     0.11200
C2061       C  0.74826170  0.40746875  0.38457787    -0.15000
C2062       C  0.74687857  0.39929606  0.35333731     0.07200
C2063       C  0.74482638  0.36808279  0.34535985    -0.15000
C2064       C  0.74493742  0.34551392  0.36801474    -0.15000
C2065       C  0.74707904  0.35360328  0.39920750     0.07200
C2066       C  0.74836249  0.38486284  0.40727054    -0.15000
H2067       H  0.74964105  0.43131985  0.39155783     0.11200
H2068       H  0.74340813  0.36096791  0.32155208     0.11200
H2069       H  0.74357237  0.32167904  0.36098066     0.11200
H2070       H  0.74982641  0.39191826  0.43109442     0.11200
C2071       C  0.74165984  0.09636626  0.38127490    -0.15000
C2072       C  0.75234657  0.10267665  0.35152998     0.07200
C2073       C  0.76346879  0.13225137  0.34489389    -0.15000
C2074       C  0.76363816  0.15510132  0.36750823    -0.15000
C2075       C  0.75271131  0.14879765  0.39718899     0.07200
C2076       C  0.74183066  0.11917006  0.40384359    -0.15000
H2077       H  0.73269500  0.07390088  0.38700407     0.11200
H2078       H  0.77218694  0.13768844  0.32225647     0.11200
H2079       H  0.77248240  0.17762778  0.36182006     0.11200
H2080       H  0.73299519  0.11369687  0.42642499     0.11200
C2081       C  0.86734570  0.15657999  0.25684827    -0.15000
C2082       C  0.89833910  0.14840927  0.25425240     0.07200
C2083       C  0.90599656  0.11709336  0.25226550    -0.15000
C2084       C  0.88324886  0.09458334  0.25211725    -0.15000
C2085       C  0.85222480  0.10276226  0.25394740     0.07200
C2086       C  0.84457247  0.13404792  0.25666608    -0.15000
H2087       H  0.86057621  0.18044176  0.25868727     0.11200
H2088       H  0.92960058  0.10988855  0.25039915     0.11200
H2089       H  0.89004354  0.07074274  0.25013089     0.11200
H2090       H  0.82094670  0.14121788  0.25841443     0.11200
C2091       C  0.86809670  0.34446813  0.25320164    -0.15000
C2092       C  0.89908942  0.35274897  0.25067784     0.07200
C2093       C  0.90654652  0.38403925  0.24796741    -0.15000
C2094       C  0.88362451  0.40644038  0.24785329    -0.15000
C2095       C  0.85263754  0.39814829  0.25048400     0.07200
C2096       C  0.84519598  0.36685041  0.25310642    -0.15000
H2097       H  0.86142067  0.32061453  0.25536032     0.11200
H2098       H  0.93011384  0.39128670  0.24582964     0.11200
H2099       H  0.89026349  0.43030030  0.24565629     0.11200
H2100       H  0.82163714  0.35956115  0.25519881     0.11200
C2101       C  0.63377838  0.15671009  0.24361798    -0.15000
C2102       C  0.60278067  0.14848929  0.24619498     0.07200
C2103       C  0.59515062  0.11720753  0.24831432    -0.15000
C2104       C  0.61788035  0.09472548  0.24813261    -0.15000
C2105       C  0.64887200  0.10291346  0.24585670     0.07200
C2106       C  0.65654997  0.13418708  0.24345278    -0.15000
H2107       H  0.64052641  0.18057538  0.24182131     0.11200
H2108       H  0.57156762  0.10999889  0.25039345     0.11200
H2109       H  0.61108808  0.07088846  0.25010823     0.11200
H2110       H  0.68016971  0.14132949  0.24152654     0.11200
C2111       C  0.59372443  0.38408156  0.24960444    -0.15000
C2112       C  0.60120992  0.35274177  0.25174356     0.07200
C2113       C  0.63218814  0.34444212  0.25423164    -0.15000
C2114       C  0.65510693  0.36680394  0.25406495    -0.15000
C2115       C  0.64768014  0.39809431  0.25143920     0.07200
C2116       C  0.61665824  0.40645856  0.24944005    -0.15000
H2117       H  0.57014544  0.39137613  0.24775362     0.11200
H2118       H  0.63884926  0.32056835  0.25619586     0.11200
H2119       H  0.67867849  0.35949630  0.25592592     0.11200
H2120       H  0.61000603  0.43033994  0.24750816     0.11200
C2121       C  0.86616337  0.24874900  0.15691753    -0.15000
C2122       C  0.89724080  0.25064041  0.14888263     0.07200
C2123       C  0.90498396  0.25308198  0.11761167    -0.15000
C2124       C  0.88230242  0.25370591  0.09501312    -0.15000
C2125       C  0.85120993  0.25182023  0.10302429     0.07200
C2126       C  0.84345121  0.24937464  0.13428836    -0.15000
H2127       H  0.85930380  0.24678330  0.18073416     0.11200
H2128       H  0.92863474  0.25464307  0.11048906     0.11200
H2129       H  0.88922494  0.25565470  0.07121150     0.11200
H2130       H  0.81978573  0.24780477  0.14134917     0.11200
C2131       C  0.63179278  0.25213645  0.15502297    -0.15000
C2132       C  0.60087931  0.24894238  0.14682453     0.07200
C2133       C  0.59330441  0.24553858  0.11561938    -0.15000
C2134       C  0.61609434  0.24573501  0.09314688    -0.15000
C2135       C  0.64698453  0.24928520  0.10135958     0.07200
C2136       C  0.65454666  0.25232338  0.13258674    -0.15000
H2137       H  0.63850106  0.25477030  0.17882749     0.11200
H2138       H  0.56976212  0.24274172  0.10849911     0.11200
H2139       H  0.60945195  0.24307818  0.06932567     0.11200
H2140       H  0.67807269  0.25507724  0.13977251     0.11200
C2141       C  0.63383330  0.25390101  0.34334616    -0.15000
C2142       C  0.60302179  0.24901924  0.35120506     0.07200
C2143       C  0.59556999  0.24441607  0.38229014    -0.15000
C2144       C  0.61823458  0.24496469  0.40493367    -0.15000
C2145       C  0.64900766  0.25005943  0.39712528     0.07200
C2146       C  0.65651909  0.25444425  0.36600969    -0.15000
H2147       H  0.64045955  0.25760334  0.31967018     0.11200
H2148       H  0.57215834  0.24034888  0.38921293     0.11200
H2149       H  0.61158227  0.24124916  0.42859968     0.11200
H2150       H  0.67994276  0.25849594  0.35911556     0.11200
C2151       C  0.90737061  0.25492208  0.38474155    -0.15000
C2152       C  0.90019901  0.24981184  0.35367733     0.07200
C2153       C  0.86947051  0.24511796  0.34544562    -0.15000
C2154       C  0.84644284  0.24572758  0.36763570    -0.15000
C2155       C  0.85353834  0.25103055  0.39866782     0.07200
C2156       C  0.88430986  0.25556296  0.40695953    -0.15000
H2157       H  0.93076206  0.25874116  0.39189264     0.11200
H2158       H  0.86311094  0.24090069  0.32176922     0.11200
H2159       H  0.82307093  0.24190710  0.36042833     0.11200
H2160       H  0.89064258  0.25977120  0.43064478     0.11200
C2161       C  0.90413998  0.36789417  0.00208410    -0.15000
C2162       C  0.89675716  0.39926842  0.00355565     0.07200
C2163       C  0.86582442  0.40782625  0.00575539    -0.15000
C2164       C  0.84281979  0.38554772  0.00594358    -0.15000
C2165       C  0.85021474  0.35418620  0.00389750     0.07200
C2166       C  0.88118619  0.34566126  0.00231160    -0.15000
H2167       H  0.92768294  0.36041865  0.00049164     0.11200
H2168       H  0.85929318  0.43178219  0.00717425     0.11200
H2169       H  0.81924925  0.39294372  0.00746952     0.11200
H2170       H  0.88780827  0.32173463  0.00083973     0.11200
C2171       C  0.90700373  0.13543014  0.99940842    -0.15000
C2172       C  0.89902471  0.10409594  0.00044512     0.07200
C2173       C  0.86785483  0.09625421  0.00084980    -0.15000
C2174       C  0.84531013  0.11897392  0.00039160    -0.15000
C2175       C  0.85320138  0.15026349  0.99960229     0.07200
C2176       C  0.88438225  0.15822662  0.99897211    -0.15000
H2177       H  0.93074476  0.14240264  0.99894641     0.11200
H2178       H  0.86073780  0.07244406  0.00156183     0.11200
H2179       H  0.82160217  0.11189411  0.00082473     0.11200
H2180       H  0.89137537  0.18207969  0.99822637     0.11200
C2181       C  0.59323236  0.36647079  0.98835982    -0.15000
C2182       C  0.60015239  0.39704679  0.99615148     0.07200
C2183       C  0.63042800  0.40470808  0.00368698    -0.15000
C2184       C  0.65320981  0.38233690  0.00384556    -0.15000
C2185       C  0.64633163  0.35169729  0.99644591     0.07200
C2186       C  0.61610764  0.34401226  0.98850391    -0.15000
H2187       H  0.57018176  0.35990231  0.98213582     0.11200
H2188       H  0.63652488  0.42799327  0.00999046     0.11200
H2189       H  0.67617504  0.38902589  0.01024827     0.11200
H2190       H  0.61012075  0.32065128  0.98237372     0.11200
C2191       C  0.63283988  0.09410655  0.00603668    -0.15000
C2192       C  0.60245446  0.10148021  0.99865945     0.07200
C2193       C  0.59513250  0.13220354  0.99190598    -0.15000
C2194       C  0.61763857  0.15497886  0.99253435    -0.15000
C2195       C  0.64807517  0.14762179  0.99987240     0.07200
C2196       C  0.65537114  0.11690201  0.00665935    -0.15000
H2197       H  0.63920269  0.07073727  0.01165233     0.11200
H2198       H  0.57199119  0.13869510  0.98596345     0.11200
H2199       H  0.61119237  0.17834262  0.98698747     0.11200
H2200       H  0.67850473  0.11045491  0.01265150     0.11200
C2201       C  0.90424145  0.00784213  0.36784298    -0.15000
C2202       C  0.89695528  0.00051360  0.39841614     0.07200
C2203       C  0.86640278  0.99382141  0.40587357    -0.15000
C2204       C  0.84373205  0.99421515  0.38325613    -0.15000
C2205       C  0.85107779  0.00127597  0.35264572     0.07200
C2206       C  0.88158617  0.00824872  0.34524540    -0.15000
H2207       H  0.92746334  0.01344445  0.36134847     0.11200
H2208       H  0.86000082  0.98797851  0.42917469     0.11200
H2209       H  0.82050342  0.98861286  0.38971877     0.11200
H2210       H  0.88801877  0.01410488  0.32195255     0.11200
C2211       C  0.63171508  0.00073539  0.40314143    -0.15000
C2212       C  0.60061488  0.00042674  0.39509585     0.07200
C2213       C  0.59270586  0.00071378  0.36374913    -0.15000
C2214       C  0.61538906  0.00128463  0.34108702    -0.15000
C2215       C  0.64650245  0.00149277  0.34924850     0.07200
C2216       C  0.65431603  0.00132146  0.38056141    -0.15000
H2217       H  0.63873696  0.00054284  0.42699217     0.11200
H2218       H  0.56899208  0.00050528  0.35666961     0.11200
H2219       H  0.60850336  0.00143041  0.31719125     0.11200
H2220       H  0.67799115  0.00150735  0.38776737     0.11200
C2221       C  0.59660284  0.99910737  0.13060370    -0.15000
C2222       C  0.60419780  0.99763585  0.09929255     0.07200
C2223       C  0.63523945  0.99603823  0.09094946    -0.15000
C2224       C  0.65809509  0.99655395  0.11344342    -0.15000
C2225       C  0.65040648  0.99865738  0.14476806     0.07200
C2226       C  0.61935916  0.99962534  0.15300066    -0.15000
H2227       H  0.57299036  0.00017796  0.13794043     0.11200
H2228       H  0.64193943  0.99460861  0.06703970     0.11200
H2229       H  0.68175403  0.99543721  0.10626025     0.11200
H2230       H  0.61249170  0.00102479  0.17685872     0.11200
C2231       C  0.86920844  0.00634318  0.09600056    -0.15000
C2232       C  0.90002624  0.00234159  0.10410762     0.07200
C2233       C  0.90770849  0.99873130  0.13524067    -0.15000
C2234       C  0.88492677  0.99825382  0.15765988    -0.15000
C2235       C  0.85403218  0.00142499  0.14938065     0.07200
C2236       C  0.84648766  0.00583613  0.11835521    -0.15000
H2237       H  0.86250489  0.00967788  0.07229077     0.11200
H2238       H  0.93125765  0.99583371  0.14228620     0.11200
H2239       H  0.89153381  0.99506151  0.18141811     0.11200
H2240       H  0.82297610  0.00886841  0.11123726     0.11200
C2241       C  0.50484454  0.13315683  0.40519483    -0.15000
C2242       C  0.49859524  0.10232608  0.39800845     0.07200
C2243       C  0.00156218  0.09244746  0.36476626    -0.15000
C2244       C  0.00177943  0.11527465  0.34218569    -0.15000
C2245       C  0.49998825  0.14718312  0.35132694     0.07200
C2246       C  0.50556978  0.15532240  0.38210716    -0.15000
H2247       H  0.50952904  0.14015913  0.42861143     0.11200
H2248       H  0.00307096  0.06863482  0.35767763     0.11200
H2249       H  0.00344013  0.10839308  0.31832218     0.11200
H2250       H  0.51069888  0.17884065  0.38841911     0.11200
C2251       C  0.49815321  0.36618354  0.40620752    -0.15000
C2252       C  0.50141123  0.39733686  0.39830525     0.07200
C2253       C  0.99575146  0.40663599  0.36617977    -0.15000
C2254       C  0.99706765  0.38402261  0.34347004    -0.15000
C2255       C  0.50139995  0.35135784  0.35238806     0.07200
C2256       C  0.49814234  0.34347195  0.38352333    -0.15000
H2257       H  0.49528783  0.35928770  0.42992702     0.11200
H2258       H  0.99000040  0.42991270  0.35957343     0.11200
H2259       H  0.99215597  0.39046945  0.31995897     0.11200
H2260       H  0.49527152  0.31975174  0.39041844     0.11200
C2261       C  0.49093006  0.36823748  0.09476866    -0.15000
C2262       C  0.49946994  0.39846572  0.10238158     0.07200
C2263       C  0.97973615  0.37277967  0.10034031    -0.15000
C2264       C  0.97920291  0.35054516  0.12345575    -0.15000
C2265       C  0.49885400  0.35200929  0.14759203     0.07200
C2266       C  0.49065648  0.34525799  0.11710691    -0.15000
H2267       H  0.48419366  0.36233107  0.07155530     0.11200
H2268       H  0.96441265  0.37051153  0.08092329     0.11200
H2269       H  0.96358531  0.33133276  0.12148041     0.11200
H2270       H  0.48376097  0.32227148  0.11053344     0.11200
C2271       C  0.49155170  0.09717883  0.12972084    -0.15000
C2272       C  0.50551720  0.10259319  0.10126408     0.07200
C2273       C  0.01466200  0.09686241  0.13133073    -0.15000
C2274       C  0.01467787  0.12007274  0.15349246    -0.15000
C2275       C  0.50439309  0.14872155  0.14647819     0.07200
C2276       C  0.49098362  0.12001763  0.15208832    -0.15000
H2277       H  0.48041674  0.07547063  0.13445907     0.11200
H2278       H  0.02420778  0.07465140  0.13710970     0.11200
H2279       H  0.02421225  0.11522317  0.17593100     0.11200
H2280       H  0.47949431  0.11539397  0.17363112     0.11200
O2281       O  0.50136379  0.04906006  0.58741385    -0.88100
O2282       O  0.49818163  0.05024137  0.91320346    -0.88300
O2283       O  0.55072366  0.08714958  0.50069550    -0.90000
O2284       O  0.95167238  0.08802923  0.49703997    -0.88700
O2285       O  0.91422154  0.05120476  0.49736352    -0.88300
O2286       O  0.58777653  0.04991134  0.49976872    -0.89700
O2287       O  0.49893988  0.08732332  0.95062212    -0.88200
O2288       O  0.49970171  0.08666513  0.55055333    -0.87700
Zr2289     Zr  0.50077531  0.06196250  0.50019358     2.84300
O2290       O  0.96853590  0.03131386  0.96969577    -1.09700
O2291       O  0.53211951  0.03080886  0.53060549    -1.10400
C2292       C  0.50008209  0.07744281  0.57878153     1.05000
C2293       C  0.49825108  0.07850202  0.92235114     1.04900
C2294       C  0.57893181  0.07825017  0.50057792     1.07900
C2295       C  0.92342165  0.07942704  0.49649723     1.05700
H2296       H  0.54344013  0.04359562  0.95492539     0.31300
O2297       O  0.53077631  0.03104051  0.96803062    -1.30700
H2298       H  0.95690459  0.04508638  0.54326025     0.30900
O2299       O  0.96942779  0.03177799  0.53074676    -1.32300
O2300       O  0.50138891  0.44871359  0.91377952    -0.88100
O2301       O  0.49672088  0.44926123  0.58747830    -0.89600
O2302       O  0.58530145  0.99746559  0.94804968    -0.88200
O2303       O  0.91166599  0.00118061  0.95190833    -0.88200
O2304       O  0.91354139  0.00334934  0.55027873    -0.88000
O2305       O  0.58830802  0.99912238  0.54778518    -0.87800
O2306       O  0.54874852  0.41186389  0.50007865    -0.88100
O2307       O  0.94878476  0.41420078  0.50100751    -0.87600
O2308       O  0.58589142  0.44898220  0.49887697    -0.88700
O2309       O  0.91222104  0.45194931  0.50107413    -0.87800
O2310       O  0.54780355  0.99852061  0.91133351    -0.88200
O2311       O  0.55176683  0.99798220  0.58553797    -0.87900
O2312       O  0.95076925  0.00262481  0.58731602    -0.87600
O2313       O  0.94818905  0.00099750  0.91411756    -0.88000
O2314       O  0.49804121  0.41189007  0.95137948    -0.88300
O2315       O  0.49705169  0.41219457  0.54992520    -0.89600
Zr2316     Zr  0.49877067  0.00022433  0.93816660     2.83100
Zr2317     Zr  0.50142814  0.99933788  0.56150282     2.83500
Zr2318     Zr  0.56228738  0.00002794  0.49846746     2.84100
Zr2319     Zr  0.93815151  0.00067836  0.50024606     2.83400
Zr2320     Zr  0.49928865  0.43780800  0.50038070     2.84200
O2321       O  0.96871616  0.46940353  0.53088521    -1.10200
O2322       O  0.52959416  0.46851849  0.96862053    -1.09700
C2323       C  0.50025161  0.42060883  0.92317655     1.05000
C2324       C  0.49604685  0.42103631  0.57823982     1.04000
C2325       C  0.57609938  0.99752279  0.91983394     1.05100
C2326       C  0.92009939  0.00137512  0.92343921     1.05500
C2327       C  0.92261874  0.00354916  0.57852287     1.05100
C2328       C  0.57981535  0.99822163  0.57618078     1.04600
C2329       C  0.57693938  0.42072214  0.49923741     1.05100
C2330       C  0.92074070  0.42357060  0.50149396     1.04600
H2331       H  0.54363935  0.45488110  0.54421850     0.31200
O2332       O  0.53102274  0.46790746  0.53152861    -1.31300
H2333       H  0.95456521  0.45693999  0.95754742     0.31300
O2334       O  0.96780084  0.46947229  0.97012674    -1.32700
O2335       O  0.49789957  0.19952766  0.66389723    -0.88100
O2336       O  0.50036547  0.20136714  0.83857750    -0.88300
O2337       O  0.54895769  0.16293657  0.74960217    -0.90000
O2338       O  0.94912824  0.16403038  0.75235470    -0.88700
O2339       O  0.91224152  0.20149041  0.75216641    -0.88300
O2340       O  0.58605425  0.20012512  0.74842867    -0.89700
O2341       O  0.49946353  0.16413068  0.80130149    -0.88200
O2342       O  0.49831891  0.16256351  0.70143918    -0.87700
Zr2343     Zr  0.49933277  0.18844084  0.75100701     2.84300
O2344       O  0.96883616  0.21974321  0.78205035    -1.09700
O2345       O  0.53014046  0.21892009  0.71941159    -1.10400
C2346       C  0.49780061  0.17128842  0.67308288     1.05000
C2347       C  0.49972149  0.17310588  0.82960276     1.04900
C2348       C  0.57713616  0.17180494  0.74853088     1.07900
C2349       C  0.92099845  0.17317822  0.75251049     1.05700
H2350       H  0.54386903  0.20645132  0.79408555     0.31300
O2351       O  0.53099452  0.21926124  0.78144501    -1.30700
H2352       H  0.95485172  0.20709888  0.70756855     0.30900
O2353       O  0.96791670  0.21982742  0.72012632    -1.32300
O2354       O  0.50046623  0.29972860  0.83831625    -0.88100
O2355       O  0.49808452  0.29962642  0.66343722    -0.89600
O2356       O  0.58756007  0.25025825  0.79893877    -0.88200
O2357       O  0.91374080  0.24889788  0.80208162    -0.88200
O2358       O  0.91142480  0.25135639  0.70231769    -0.88000
O2359       O  0.58634155  0.24893869  0.69991017    -0.87800
O2360       O  0.54965243  0.33793585  0.74897299    -0.88100
O2361       O  0.94944482  0.33804752  0.75008478    -0.87600
O2362       O  0.58636205  0.30034122  0.74884048    -0.88700
O2363       O  0.91231466  0.30096699  0.75197264    -0.87800
O2364       O  0.55076352  0.25071434  0.83642822    -0.88200
O2365       O  0.54916428  0.24838066  0.66282672    -0.87900
O2366       O  0.94832787  0.25212123  0.66493825    -0.87600
O2367       O  0.95099847  0.24907976  0.83909984    -0.88000
O2368       O  0.50275405  0.33717611  0.80121123    -0.88300
O2369       O  0.49697346  0.33726406  0.70049058    -0.89600
Zr2370     Zr  0.50035617  0.25053217  0.81244476     2.83100
Zr2371     Zr  0.49925660  0.24985362  0.68856285     2.83500
Zr2372     Zr  0.56125975  0.25028598  0.74975254     2.84100
Zr2373     Zr  0.93767132  0.25102521  0.75168202     2.83400
Zr2374     Zr  0.49990728  0.31260643  0.75064502     2.84200
O2375       O  0.96785751  0.28182346  0.71993323    -1.10200
O2376       O  0.53109551  0.28155967  0.78130486    -1.09700
C2377       C  0.50195320  0.32791687  0.82943583     1.05000
C2378       C  0.49686643  0.32793914  0.67227528     1.07600
C2379       C  0.57887498  0.25036341  0.82729223     1.05100
C2380       C  0.92278626  0.24841058  0.83032016     1.05500
C2381       C  0.92023372  0.25185183  0.67397461     1.05100
C2382       C  0.57744561  0.24821723  0.67162817     1.04600
C2383       C  0.57776331  0.32875811  0.74862384     1.05100
C2384       C  0.92127634  0.32924591  0.75077513     1.04600
H2385       H  0.54292100  0.29407989  0.70584425     0.31200
O2386       O  0.53035345  0.28143540  0.71895602    -1.31300
H2387       H  0.95585549  0.29478213  0.79559160     0.31300
O2388       O  0.96852579  0.28207917  0.78259475    -1.32700
O2389       O  0.83738200  0.50148644  0.70135015    -0.88100
O2390       O  0.66463066  0.50087583  0.69813123    -0.88300
O2391       O  0.75160931  0.45012440  0.66326002    -0.90000
O2392       O  0.75114123  0.04985410  0.66199374    -0.88700
O2393       O  0.75053345  0.08726357  0.69919810    -0.88300
O2394       O  0.75194465  0.41314056  0.70068726    -0.89700
O2395       O  0.70185219  0.50151402  0.66109507    -0.88200
O2396       O  0.80088850  0.49883088  0.66363143    -0.87700
Zr2397     Zr  0.75082326  0.50038372  0.68781705     2.84300
O2398       O  0.71948709  0.03120602  0.71763894    -1.09700
O2399       O  0.78149205  0.46999787  0.71940673    -1.10400
C2400       C  0.82890486  0.49985150  0.67290406     1.05000
C2401       C  0.67364618  0.50144182  0.66991438     1.04900
C2402       C  0.75209617  0.42190144  0.67241632     1.07900
C2403       C  0.75105549  0.07814834  0.67092181     1.05700
H2404       H  0.70707017  0.45614596  0.70490002     0.31300
O2405       O  0.71948132  0.46908704  0.71791226    -1.30700
H2406       H  0.79395971  0.04474518  0.70634216     0.30900
O2407       O  0.78110386  0.03181273  0.71886806    -1.32300
O2408       O  0.66079975  0.49931203  0.79691547    -0.88100
O2409       O  0.83446267  0.50232863  0.80218202    -0.89600
O2410       O  0.70081260  0.41301271  0.74957289    -0.88200
O2411       O  0.69923707  0.08699592  0.74730206    -0.88200
O2412       O  0.79879452  0.08847674  0.74963753    -0.88000
O2413       O  0.80049677  0.41503504  0.75003770    -0.87800
O2414       O  0.74800040  0.45026679  0.83646017    -0.88100
O2415       O  0.74941172  0.05008069  0.83673989    -0.87600
O2416       O  0.75026088  0.41318174  0.79905701    -0.88700
O2417       O  0.75146720  0.08754319  0.79970220    -0.87800
O2418       O  0.66366691  0.45009256  0.74832040    -0.88200
O2419       O  0.83749209  0.45235315  0.75022030    -0.87900
O2420       O  0.83601924  0.05143584  0.75172967    -0.87600
O2421       O  0.66250800  0.04942413  0.74669294    -0.88000
O2422       O  0.69726306  0.50014241  0.83471204    -0.88300
O2423       O  0.79688357  0.50126956  0.83889432    -0.89600
Zr2424     Zr  0.68824216  0.50008988  0.74851764     2.83100
Zr2425     Zr  0.81121397  0.50153743  0.75101463     2.83500
Zr2426     Zr  0.75026054  0.43901037  0.74984297     2.84100
Zr2427     Zr  0.74939718  0.06250969  0.74937897     2.83400
Zr2428     Zr  0.74821141  0.50047171  0.81173435     2.84200
O2429       O  0.77965327  0.03157119  0.78088009    -1.10200
O2430       O  0.71822625  0.46917005  0.78033588    -1.09700
C2431       C  0.66921286  0.49952246  0.82532649     1.05000
C2432       C  0.82517844  0.50208609  0.83043961     1.07600
C2433       C  0.67260241  0.42183604  0.74888480     1.05100
C2434       C  0.67113301  0.07782395  0.74655702     1.05500
C2435       C  0.82698145  0.07969667  0.75097194     1.05100
C2436       C  0.82861755  0.42405110  0.74998715     1.04600
C2437       C  0.74905187  0.42200928  0.82732258     1.05100
C2438       C  0.75115553  0.07837342  0.82796896     1.04600
H2439       H  0.79305833  0.45735726  0.79452339     0.31200
O2440       O  0.78038062  0.47001123  0.78153357    -1.31300
H2441       H  0.70493597  0.04427882  0.79266357     0.31300
O2442       O  0.71799174  0.03154897  0.78008188    -1.32700
O2443       O  0.70030481  0.16309780  0.00041609    -0.88100
O2444       O  0.69859201  0.33731140  0.99817138    -0.88300
O2445       O  0.66362886  0.24833614  0.54968826    -0.90000
O2446       O  0.66326430  0.24971862  0.94956701    -0.88700
O2447       O  0.70054801  0.24943493  0.91257326    -0.88300
O2448       O  0.70050084  0.24810641  0.58709952    -0.89700
O2449       O  0.66203738  0.29955259  0.99773627    -0.88200
O2450       O  0.66298486  0.20008475  0.99977178    -0.87700
Zr2451     Zr  0.68800199  0.25008973  0.99951582     2.84300
O2452       O  0.71856852  0.28128408  0.96851883    -1.09700
O2453       O  0.71997351  0.21902176  0.53052816    -1.10400
C2454       C  0.67202818  0.17182026  0.00012600     1.05000
C2455       C  0.67055731  0.32796543  0.99742990     1.04900
C2456       C  0.67233041  0.24771911  0.57806556     1.07900
C2457       C  0.67233593  0.24943025  0.92133894     1.05700
H2458       H  0.70614248  0.29370974  0.54475047     0.31300
O2459       O  0.71900166  0.28122224  0.53173362    -1.30700
H2460       H  0.70659727  0.20593574  0.95571315     0.30900
O2461       O  0.71903353  0.21899110  0.96858576    -1.32300
O2462       O  0.79783618  0.33926741  0.00178731    -0.88100
O2463       O  0.80081934  0.16503416  0.99970604    -0.89600
O2464       O  0.75130063  0.29911680  0.58819046    -0.88200
O2465       O  0.74967231  0.29957744  0.91195402    -0.88200
O2466       O  0.75305115  0.20013239  0.91310939    -0.88000
O2467       O  0.75139886  0.19981930  0.58638160    -0.87800
O2468       O  0.83750839  0.25128554  0.55011259    -0.88100
O2469       O  0.83643003  0.25090762  0.95124539    -0.87600
O2470       O  0.80010068  0.25050043  0.58696193    -0.88700
O2471       O  0.79997115  0.24937689  0.91347869    -0.87800
O2472       O  0.75046252  0.33651707  0.55118338    -0.88200
O2473       O  0.75166451  0.16284789  0.54877392    -0.87900
O2474       O  0.75167270  0.16309115  0.95055123    -0.87600
O2475       O  0.74829739  0.33706637  0.94906947    -0.88000
O2476       O  0.83489556  0.30206424  0.00258046    -0.88300
O2477       O  0.83751971  0.20262653  0.00023166    -0.89600
Zr2478     Zr  0.74868121  0.31283181  0.99972519     2.83100
Zr2479     Zr  0.75010752  0.18877834  0.00010342     2.83500
Zr2480     Zr  0.75040919  0.24988227  0.56190124     2.84100
Zr2481     Zr  0.75010835  0.25028773  0.93810110     2.83400
Zr2482     Zr  0.81090218  0.25169153  0.00075879     2.84200
O2483       O  0.78092206  0.22004982  0.96958035    -1.10200
O2484       O  0.78094290  0.28172894  0.53158279    -1.09700
C2485       C  0.82600727  0.33035816  0.00280065     1.05000
C2486       C  0.82896141  0.17422515  0.99978338     1.07600
C2487       C  0.75123144  0.32742405  0.57938803     1.05100
C2488       C  0.74878410  0.32790169  0.92077091     1.05500
C2489       C  0.75304631  0.17189113  0.92227090     1.05100
C2490       C  0.75168864  0.17162816  0.57713036     1.04600
C2491       C  0.82832873  0.25097566  0.57834213     1.05100
C2492       C  0.82796707  0.24966263  0.92286481     1.04600
H2493       H  0.79497528  0.20665469  0.54340745     0.31200
O2494       O  0.78199547  0.21947171  0.53088163    -1.31300
H2495       H  0.79322198  0.29521759  0.95624455     0.31300
O2496       O  0.78044829  0.28233822  0.96892421    -1.32700
C2497       C  0.75953657  0.13238972  0.65413490    -0.15000
C2498       C  0.75168776  0.10195921  0.64682150     0.07200
C2499       C  0.74441194  0.09448558  0.61625471    -0.15000
C2500       C  0.74458922  0.11706688  0.59355415    -0.15000
C2501       C  0.75208697  0.14756790  0.60095513     0.07200
C2502       C  0.75972601  0.15495988  0.63144105    -0.15000
H2503       H  0.76565798  0.13877798  0.67739245     0.11200
H2504       H  0.73817259  0.07124868  0.60990892     0.11200
H2505       H  0.73845285  0.11068982  0.57029688     0.11200
H2506       H  0.76596112  0.17819690  0.63779455     0.11200
C2507       C  0.74902585  0.40534792  0.61759971    -0.15000
C2508       C  0.75253781  0.39767661  0.64869889     0.07200
C2509       C  0.75604007  0.36662997  0.65690488    -0.15000
C2510       C  0.75576503  0.34374153  0.63444212    -0.15000
C2511       C  0.75195373  0.35145456  0.60333941     0.07200
C2512       C  0.74873951  0.38251502  0.59519199    -0.15000
H2513       H  0.74620104  0.42901070  0.61049480     0.11200
H2514       H  0.75895590  0.35994870  0.68068219     0.11200
H2515       H  0.75851443  0.32004618  0.64147487     0.11200
H2516       H  0.74574465  0.38928705  0.57145478     0.11200
C2517       C  0.73935015  0.40462369  0.88110671    -0.15000
C2518       C  0.74880382  0.39780987  0.85104541     0.07200
C2519       C  0.75778312  0.36762192  0.84384991    -0.15000
C2520       C  0.75755068  0.34480958  0.86638664    -0.15000
C2521       C  0.74842812  0.35175703  0.89659393     0.07200
C2522       C  0.73914388  0.38185293  0.90361434    -0.15000
H2523       H  0.73189443  0.42755013  0.88724729     0.11200
H2524       H  0.76529747  0.36166853  0.82088832     0.11200
H2525       H  0.76491730  0.32185192  0.86024842     0.11200
H2526       H  0.73156524  0.38782867  0.92653973     0.11200
C2527       C  0.74031977  0.09623522  0.88149877    -0.15000
C2528       C  0.75283368  0.10204160  0.85235457     0.07200
C2529       C  0.76691618  0.13054246  0.84685738    -0.15000
C2530       C  0.76755916  0.15313498  0.86976436    -0.15000
C2531       C  0.75412584  0.14760941  0.89855296     0.07200
C2532       C  0.74096758  0.11876725  0.90434648    -0.15000
H2533       H  0.72936538  0.07448155  0.88643158     0.11200
H2534       H  0.77741055  0.13535409  0.82484930     0.11200
H2535       H  0.77845729  0.17494673  0.86494524     0.11200
H2536       H  0.73041924  0.11388062  0.92631486     0.11200
C2537       C  0.86666375  0.15689719  0.74439493    -0.15000
C2538       C  0.89681622  0.14942097  0.75271281     0.07200
C2539       C  0.90366744  0.11897317  0.76079501    -0.15000
C2540       C  0.88097269  0.09643284  0.76029286    -0.15000
C2541       C  0.85087775  0.10380246  0.75171139     0.07200
C2542       C  0.84395498  0.13433659  0.74386531    -0.15000
H2543       H  0.86065921  0.18012412  0.73785484     0.11200
H2544       H  0.92658044  0.11253749  0.76761811     0.11200
H2545       H  0.88702597  0.07320916  0.76678435     0.11200
H2546       H  0.82105822  0.14076811  0.73698249     0.11200
C2547       C  0.86699276  0.34648871  0.75728349    -0.15000
C2548       C  0.89750862  0.35349278  0.75014674     0.07200
C2549       C  0.90512197  0.38394273  0.74245904    -0.15000
C2550       C  0.88280893  0.40690705  0.74232917    -0.15000
C2551       C  0.85237459  0.39989995  0.74981034     0.07200
C2552       C  0.84471050  0.36941800  0.75713438    -0.15000
H2553       H  0.86032831  0.32331745  0.76334089     0.11200
H2554       H  0.92833998  0.39005905  0.73643431     0.11200
H2555       H  0.88938291  0.43009499  0.73621451     0.11200
H2556       H  0.82148856  0.36326184  0.76311123     0.11200
C2557       C  0.63206690  0.15564907  0.74408964    -0.15000
C2558       C  0.60109989  0.14766722  0.74737626     0.07200
C2559       C  0.59332263  0.11638990  0.74958577    -0.15000
C2560       C  0.61595018  0.09372186  0.74887844    -0.15000
C2561       C  0.64695301  0.10175164  0.74601200     0.07200
C2562       C  0.65467820  0.13299709  0.74339617    -0.15000
H2563       H  0.63894386  0.17946320  0.74213295     0.11200
H2564       H  0.56973197  0.10934951  0.75211742     0.11200
H2565       H  0.60911410  0.06990733  0.75097311     0.11200
H2566       H  0.67827376  0.14006070  0.74097911     0.11200
C2567       C  0.59455354  0.38395984  0.74776764    -0.15000
C2568       C  0.60207770  0.35256740  0.74808718     0.07200
C2569       C  0.63313230  0.34414553  0.74835098    -0.15000
C2570       C  0.65604292  0.36652773  0.74863482    -0.15000
C2571       C  0.64847596  0.39790393  0.74855727     0.07200
C2572       C  0.61743657  0.40631464  0.74802773    -0.15000
H2573       H  0.57093740  0.39135539  0.74747577     0.11200
H2574       H  0.63983116  0.32020014  0.74852490     0.11200
H2575       H  0.67967776  0.35918966  0.74896306     0.11200
H2576       H  0.61069128  0.43025024  0.74788959     0.11200
C2577       C  0.86532141  0.25107142  0.65716924    -0.15000
C2578       C  0.89653562  0.25178565  0.64969879     0.07200
C2579       C  0.90510124  0.25203758  0.61854227    -0.15000
C2580       C  0.88305575  0.25169870  0.59541336    -0.15000
C2581       C  0.85183841  0.25111652  0.60283779     0.07200
C2582       C  0.84324020  0.25073476  0.63400208    -0.15000
H2583       H  0.85789349  0.25073231  0.68089789     0.11200
H2584       H  0.92893112  0.25246231  0.61188279     0.11200
H2585       H  0.89054699  0.25192274  0.57170459     0.11200
H2586       H  0.81939419  0.25019603  0.64059304     0.11200
C2587       C  0.63272685  0.24993609  0.65579166    -0.15000
C2588       C  0.60169418  0.24730684  0.64762825     0.07200
C2589       C  0.59422800  0.24399115  0.61637805    -0.15000
C2590       C  0.61711336  0.24376179  0.59389288    -0.15000
C2591       C  0.64809519  0.24686397  0.60204280     0.07200
C2592       C  0.65558675  0.24970492  0.63333029    -0.15000
H2593       H  0.63945172  0.25249107  0.67959928     0.11200
H2594       H  0.57065312  0.24167419  0.60921003     0.11200
H2595       H  0.61044335  0.24129669  0.57006090     0.11200
H2596       H  0.67914266  0.25213124  0.64053453     0.11200
C2597       C  0.63385283  0.24606803  0.84334962    -0.15000
C2598       C  0.60290891  0.24979448  0.85125224     0.07200
C2599       C  0.59504189  0.25275286  0.88241965    -0.15000
C2600       C  0.61752966  0.25239273  0.90510848    -0.15000
C2601       C  0.64849497  0.24908997  0.89721804     0.07200
C2602       C  0.65638469  0.24570856  0.86608315    -0.15000
H2603       H  0.64072222  0.24340628  0.81959387     0.11200
H2604       H  0.57145766  0.25556712  0.88938061     0.11200
H2605       H  0.61058345  0.25499212  0.92884915     0.11200
H2606       H  0.67998815  0.24282577  0.85920966     0.11200
C2607       C  0.90614017  0.25117344  0.88548118    -0.15000
C2608       C  0.89876139  0.24740595  0.85428142     0.07200
C2609       C  0.86794301  0.24344305  0.84598710    -0.15000
C2610       C  0.84500337  0.24399119  0.86822158    -0.15000
C2611       C  0.85231322  0.24846359  0.89932828     0.07200
C2612       C  0.88317257  0.25172480  0.90774317    -0.15000
H2613       H  0.92962117  0.25419720  0.89270450     0.11200
H2614       H  0.86142150  0.24013685  0.82221281     0.11200
H2615       H  0.82152469  0.24102791  0.86095186     0.11200
H2616       H  0.88964217  0.25506779  0.93152775     0.11200
C2617       C  0.90406645  0.36868441  0.49988515    -0.15000
C2618       C  0.89649602  0.39991292  0.50256174     0.07200
C2619       C  0.86562244  0.40819010  0.50623327    -0.15000
C2620       C  0.84285044  0.38568568  0.50680115    -0.15000
C2621       C  0.85049598  0.35445404  0.50367921     0.07200
C2622       C  0.88138433  0.34626459  0.50047076    -0.15000
H2623       H  0.92756694  0.36145692  0.49703602     0.11200
H2624       H  0.85899733  0.43204864  0.50860606     0.11200
H2625       H  0.81929176  0.39278663  0.50951523     0.11200
H2626       H  0.88814372  0.32245936  0.49798953     0.11200
C2627       C  0.90771322  0.13500963  0.49373085    -0.15000
C2628       C  0.89965965  0.10373882  0.49515663     0.07200
C2629       C  0.86852245  0.09587829  0.49590627    -0.15000
C2630       C  0.84603744  0.11861997  0.49590027    -0.15000
C2631       C  0.85400747  0.14990227  0.49518142     0.07200
C2632       C  0.88516080  0.15782064  0.49373805    -0.15000
H2633       H  0.93145948  0.14193897  0.49292977     0.11200
H2634       H  0.86139639  0.07207764  0.49689426     0.11200
H2635       H  0.82233521  0.11157956  0.49688129     0.11200
H2636       H  0.89218978  0.18165887  0.49293631     0.11200
C2637       C  0.59382343  0.36583957  0.50441680    -0.15000
C2638       C  0.60102995  0.39681549  0.49896689     0.07200
C2639       C  0.63171311  0.40492506  0.49378792    -0.15000
C2640       C  0.65467290  0.38269021  0.49442064    -0.15000
C2641       C  0.64751573  0.35175792  0.50011550     0.07200
C2642       C  0.61680741  0.34357369  0.50500938    -0.15000
H2643       H  0.57046006  0.35879556  0.50856410     0.11200
H2644       H  0.63808649  0.42852372  0.48923682     0.11200
H2645       H  0.67802615  0.38976207  0.49025295     0.11200
H2646       H  0.61049029  0.31995299  0.50952163     0.11200
C2647       C  0.63383698  0.09459293  0.50601810    -0.15000
C2648       C  0.60296584  0.10239533  0.50142857     0.07200
C2649       C  0.59529673  0.13354330  0.49769016    -0.15000
C2650       C  0.61791666  0.15621207  0.49806925    -0.15000
C2651       C  0.64884862  0.14833801  0.50210696     0.07200
C2652       C  0.65647424  0.11728172  0.50641213    -0.15000
H2653       H  0.64058352  0.07089385  0.50931943     0.11200
H2654       H  0.57179985  0.14045759  0.49413085     0.11200
H2655       H  0.61112351  0.17990288  0.49476727     0.11200
H2656       H  0.67998742  0.11041914  0.50996385     0.11200
C2657       C  0.90323550  0.00585391  0.86847399    -0.15000
C2658       C  0.89571686  0.00205644  0.89963524     0.07200
C2659       C  0.86471373  0.99896583  0.90771319    -0.15000
C2660       C  0.84189994  0.99939822  0.88515048    -0.15000
C2661       C  0.84954001  0.00288318  0.85394594     0.07200
C2662       C  0.88048624  0.00632474  0.84598127    -0.15000
H2663       H  0.92678686  0.00850267  0.86135003     0.11200
H2664       H  0.85803078  0.99596562  0.93147268     0.11200
H2665       H  0.81832169  0.99667731  0.89216700     0.11200
H2666       H  0.88727785  0.00927405  0.82224691     0.11200
C2667       C  0.63106336  0.99848419  0.90355636    -0.15000
C2668       C  0.59997968  0.99677831  0.89554941     0.07200
C2669       C  0.59215257  0.99488793  0.86424258    -0.15000
C2670       C  0.61485018  0.99516572  0.84155759    -0.15000
C2671       C  0.64590970  0.99736175  0.84964612     0.07200
C2672       C  0.65367576  0.99879832  0.88095416    -0.15000
H2673       H  0.63804557  0.99992727  0.92737994     0.11200
H2674       H  0.56847377  0.99335289  0.85720961     0.11200
H2675       H  0.60800857  0.99381565  0.81768610     0.11200
H2676       H  0.67730705  0.00042487  0.88813007     0.11200
C2677       C  0.59642102  0.99638444  0.63116626    -0.15000
C2678       C  0.60409988  0.99752841  0.59986022     0.07200
C2679       C  0.63515149  0.99844279  0.59151325    -0.15000
C2680       C  0.65793055  0.99878108  0.61400775    -0.15000
C2681       C  0.65015096  0.99818427  0.64533699     0.07200
C2682       C  0.61913226  0.99672538  0.65359457    -0.15000
H2683       H  0.57279162  0.99546729  0.63846810     0.11200
H2684       H  0.64191791  0.99917219  0.56759595     0.11200
H2685       H  0.68159454  0.99972571  0.60681705     0.11200
H2686       H  0.61225309  0.99601275  0.67747906     0.11200
C2687       C  0.86791335  0.00732382  0.59480463    -0.15000
C2688       C  0.89890564  0.00456097  0.60269881     0.07200
C2689       C  0.90691000  0.00190027  0.63387378    -0.15000
C2690       C  0.88437662  0.00132988  0.65657130    -0.15000
C2691       C  0.85333214  0.00345471  0.64861297     0.07200
C2692       C  0.84540984  0.00673337  0.61746964    -0.15000
H2693       H  0.86092624  0.00965706  0.57105463     0.11200
H2694       H  0.93057972  0.99978577  0.64078802     0.11200
H2695       H  0.89130710  0.99885725  0.68032004     0.11200
H2696       H  0.82175029  0.00872447  0.61048884     0.11200
C2697       C  0.49971312  0.13391699  0.90717667    -0.15000
C2698       C  0.49787541  0.10276641  0.89870366     0.07200
C2699       C  0.00221555  0.09426928  0.86739175    -0.15000
C2700       C  0.00247168  0.11698064  0.84478692    -0.15000
C2701       C  0.49905762  0.14903904  0.85348528     0.07200
C2702       C  0.50032797  0.15680937  0.88481040    -0.15000
H2703       H  0.50093656  0.14068843  0.93109760     0.11200
H2704       H  0.00385898  0.07046049  0.86032677     0.11200
H2705       H  0.00426057  0.10998609  0.82097099     0.11200
H2706       H  0.50192191  0.18055434  0.89210543     0.11200
C2707       C  0.48270563  0.37050708  0.90224430    -0.15000
C2708       C  0.50146268  0.39648609  0.89971189     0.07200
C2709       C  0.99624670  0.40726707  0.86653366    -0.15000
C2710       C  0.99681922  0.38447007  0.84402485    -0.15000
C2711       C  0.50223986  0.35133232  0.85369999     0.07200
C2712       C  0.48308819  0.34806300  0.87936136    -0.15000
H2713       H  0.46729145  0.36794475  0.92154842     0.11200
H2714       H  0.99461269  0.43104016  0.85940678     0.11200
H2715       H  0.99554524  0.39131884  0.82015121     0.11200
H2716       H  0.46797405  0.32845347  0.88135633     0.11200
C2717       C  0.50716512  0.36773251  0.59596296    -0.15000
C2718       C  0.49469008  0.39685856  0.60193026     0.07200
C2719       C  0.01266551  0.37059550  0.59808342    -0.15000
C2720       C  0.01311911  0.34830592  0.62110483    -0.15000
C2721       C  0.49549328  0.35149699  0.64801978     0.07200
C2722       C  0.50760149  0.34529400  0.61878780    -0.15000
H2723       H  0.51734800  0.36254597  0.57387440     0.11200
H2724       H  0.02509528  0.36636618  0.57697881     0.11200
H2725       H  0.02580848  0.32728232  0.61725939     0.11200
H2726       H  0.51804215  0.32329186  0.61375012     0.11200
C2727       C  0.50663756  0.09415509  0.63358470    -0.15000
C2728       C  0.49866291  0.10125225  0.60312280     0.07200
C2729       C  0.01264197  0.09749656  0.63056513    -0.15000
C2730       C  0.01139581  0.11981955  0.65365557    -0.15000
C2731       C  0.49722152  0.14702500  0.64923507     0.07200
C2732       C  0.50592460  0.11678237  0.65637946    -0.15000
H2733       H  0.51394541  0.07120837  0.63975082     0.11200
H2734       H  0.02428807  0.07604175  0.63521484     0.11200
H2735       H  0.02227796  0.11514014  0.67550525     0.11200
H2736       H  0.51278622  0.11069354  0.67948813     0.11200
O2737       O  0.50060127  0.55144631  0.08517994    -0.88100
O2738       O  0.49812624  0.55012287  0.41422105    -0.88300
O2739       O  0.54997829  0.58673046  0.99876951    -0.90000
O2740       O  0.95135719  0.58808399  0.00284415    -0.88700
O2741       O  0.91406590  0.55110180  0.00382103    -0.88300
O2742       O  0.58680970  0.54932384  0.99864875    -0.89700
O2743       O  0.49941037  0.58741818  0.45148710    -0.88200
O2744       O  0.50049602  0.58842014  0.04773564    -0.87700
Zr2745     Zr  0.50036789  0.56164164  0.99892178     2.84300
O2746       O  0.96933679  0.53192342  0.46924473    -1.09700
O2747       O  0.53152667  0.53120339  0.03006182    -1.10400
C2748       C  0.50033568  0.57969505  0.07603527     1.05000
C2749       C  0.49849623  0.57843262  0.42320610     1.04900
C2750       C  0.57807198  0.57768566  0.99887038     1.07900
C2751       C  0.92310248  0.57937450  0.00362096     1.05700
H2752       H  0.54361591  0.54328420  0.45618404     0.31300
O2753       O  0.53097993  0.53060769  0.46918917    -1.30700
H2754       H  0.95806841  0.54410902  0.04615023     0.30900
O2755       O  0.97031265  0.53131946  0.03283428    -1.32300
O2756       O  0.50075092  0.95019088  0.41238528    -0.88100
O2757       O  0.49913388  0.95065959  0.08752763    -0.89600
O2758       O  0.58655406  0.49817499  0.45010735    -0.88200
O2759       O  0.91314672  0.50140327  0.45019660    -0.88200
O2760       O  0.91515359  0.49840691  0.05288630    -0.88000
O2761       O  0.58760866  0.50011979  0.04813638    -0.87800
O2762       O  0.54707093  0.91165525  0.99826560    -0.88100
O2763       O  0.94849647  0.91339586  0.00206761    -0.87600
O2764       O  0.58450185  0.94847528  0.99689090    -0.88700
O2765       O  0.91200096  0.95116101  0.00321199    -0.87800
O2766       O  0.54934121  0.49977627  0.41308800    -0.88200
O2767       O  0.55105064  0.50061114  0.08593755    -0.87900
O2768       O  0.95287861  0.49949657  0.08952109    -0.87600
O2769       O  0.94996423  0.50052849  0.41272906    -0.88000
O2770       O  0.50214363  0.91286093  0.44944833    -0.88300
O2771       O  0.49791718  0.91346337  0.05021293    -0.89600
Zr2772     Zr  0.49951996  0.49985263  0.43866851     2.83100
Zr2773     Zr  0.50074880  0.50064921  0.06153388     2.83500
Zr2774     Zr  0.56129033  0.49959220  0.99860150     2.84100
Zr2775     Zr  0.93844698  0.50081502  0.00224503     2.83400
Zr2776     Zr  0.49824341  0.93852311  0.00028467     2.84200
O2777       O  0.96881744  0.96929542  0.03199011    -1.10200
O2778       O  0.53106749  0.96902584  0.46786106    -1.09700
C2779       C  0.50191715  0.92188469  0.42123611     1.05000
C2780       C  0.49801874  0.92237451  0.07853606     1.04000
C2781       C  0.57759680  0.49894714  0.42184384     1.05100
C2782       C  0.92188002  0.50110409  0.42183752     1.05500
C2783       C  0.92458706  0.49849897  0.08099280     1.05100
C2784       C  0.57912556  0.50034847  0.07661335     1.04600
C2785       C  0.57530990  0.92026804  0.99705847     1.05100
C2786       C  0.92047788  0.92269865  0.00314150     1.04600
H2787       H  0.54339264  0.95545998  0.04295535     0.31200
O2788       O  0.53070632  0.96862670  0.03049138    -1.31300
H2789       H  0.95492111  0.95550824  0.45681321     0.31300
O2790       O  0.96791777  0.96832885  0.46936239    -1.32700
O2791       O  0.49816448  0.70113563  0.16205410    -0.88100
O2792       O  0.50208813  0.69928332  0.33686806    -0.88300
O2793       O  0.54959326  0.66221453  0.24673072    -0.90000
O2794       O  0.94987367  0.66255280  0.25124008    -0.88700
O2795       O  0.91300128  0.69992042  0.25138774    -0.88300
O2796       O  0.58678196  0.69934960  0.24630934    -0.89700
O2797       O  0.50014887  0.66198187  0.29961585    -0.88200
O2798       O  0.49860763  0.66355106  0.19890053    -0.87700
Zr2799     Zr  0.49977599  0.68757479  0.24961405     2.84300
O2800       O  0.96904199  0.71874065  0.28155810    -1.09700
O2801       O  0.53005312  0.71860445  0.21811525    -1.10400
C2802       C  0.49826563  0.67282336  0.17067142     1.05000
C2803       C  0.50103585  0.67099130  0.32795909     1.04900
C2804       C  0.57780591  0.67109544  0.24582335     1.07900
C2805       C  0.92175135  0.67159090  0.25149238     1.05700
H2806       H  0.54487131  0.70496047  0.29229316     0.31300
O2807       O  0.53191366  0.71802488  0.28000232    -1.30700
H2808       H  0.95529640  0.70573234  0.20618651     0.30900
O2809       O  0.96822989  0.71847551  0.21887974    -1.32300
O2810       O  0.50378220  0.79933104  0.33682539    -0.88100
O2811       O  0.49696910  0.79968479  0.16283060    -0.89600
O2812       O  0.58889014  0.74866304  0.29738688    -0.88200
O2813       O  0.91403933  0.75012301  0.30096526    -0.88200
O2814       O  0.91185279  0.75075068  0.20129325    -0.88000
O2815       O  0.58499441  0.74767495  0.19731078    -0.87800
O2816       O  0.55105531  0.83652392  0.24911244    -0.88100
O2817       O  0.94920657  0.83572989  0.24970470    -0.87600
O2818       O  0.58788630  0.79910099  0.24824064    -0.88700
O2819       O  0.91201747  0.79861995  0.25058320    -0.87800
O2820       O  0.55248930  0.74819213  0.33528707    -0.88200
O2821       O  0.54719812  0.74907041  0.16089322    -0.87900
O2822       O  0.94843626  0.75215192  0.16363499    -0.87600
O2823       O  0.95136327  0.75077972  0.33790504    -0.88000
O2824       O  0.50353135  0.83660847  0.29964501    -0.88300
O2825       O  0.49864006  0.83671271  0.20024554    -0.89600
Zr2826     Zr  0.50193263  0.74920792  0.31190294     2.83100
Zr2827     Zr  0.49869198  0.75013200  0.18827427     2.83500
Zr2828     Zr  0.56205952  0.74925574  0.24829668     2.84100
Zr2829     Zr  0.93824819  0.74967904  0.25059126     2.83400
Zr2830     Zr  0.50125287  0.81154809  0.25009464     2.84200
O2831       O  0.96838170  0.78100567  0.21907249    -1.10200
O2832       O  0.53240178  0.78022012  0.28044363    -1.09700
C2833       C  0.50404836  0.82763265  0.32785379     1.05000
C2834       C  0.49717761  0.82792217  0.17192214     1.07600
C2835       C  0.58049252  0.74823759  0.32585625     1.05100
C2836       C  0.92312456  0.75066130  0.32920845     1.05500
C2837       C  0.92032300  0.75214494  0.17288806     1.05100
C2838       C  0.57551421  0.74807261  0.16918635     1.04600
C2839       C  0.57917817  0.82751424  0.24853907     1.05100
C2840       C  0.92093939  0.82685116  0.25011002     1.04600
H2841       H  0.54367737  0.79360300  0.20469864     0.31200
O2842       O  0.53122835  0.78090140  0.21787330    -1.31300
H2843       H  0.95686413  0.79400667  0.29417029     0.31300
O2844       O  0.96933667  0.78107556  0.28120987    -1.32700
O2845       O  0.83821530  0.00051719  0.20130155    -0.88100
O2846       O  0.66516350  0.00013667  0.19716243    -0.88300
O2847       O  0.75146298  0.95048026  0.16209950    -0.90000
O2848       O  0.74991720  0.54999496  0.16305445    -0.88700
O2849       O  0.74789637  0.58731356  0.20027437    -0.88300
O2850       O  0.75057324  0.91328352  0.19931874    -0.89700
O2851       O  0.70260624  0.99987901  0.16033898    -0.88200
O2852       O  0.80180521  0.00006632  0.16342898    -0.87700
Zr2853     Zr  0.75152125  0.00037561  0.18725495     2.84300
O2854       O  0.71955018  0.53073538  0.21860975    -1.09700
O2855       O  0.78189583  0.96913979  0.21844633    -1.10400
C2856       C  0.82977868  0.00049987  0.17290690     1.05000
C2857       C  0.67433226  0.99968627  0.16892872     1.04900
C2858       C  0.75101066  0.92221532  0.17106352     1.07900
C2859       C  0.74842134  0.57829923  0.17201742     1.05700
H2860       H  0.70738404  0.95663878  0.20435685     0.31300
O2861       O  0.71992275  0.96943170  0.21738036    -1.30700
H2862       H  0.79407162  0.54408278  0.20608196     0.30900
O2863       O  0.78135209  0.53129007  0.21889756    -1.32300
O2864       O  0.66234145  0.00134305  0.29699963    -0.88100
O2865       O  0.83649287  0.00115246  0.30028637    -0.89600
O2866       O  0.70065131  0.91333763  0.24790668    -0.88200
O2867       O  0.70003200  0.58681362  0.24877800    -0.88200
O2868       O  0.79945213  0.58729583  0.24940855    -0.88000
O2869       O  0.79949194  0.91283639  0.24882484    -0.87800
O2870       O  0.74807909  0.95000393  0.33593160    -0.88100
O2871       O  0.75149823  0.55024123  0.33715300    -0.87600
O2872       O  0.74866223  0.91290553  0.29848810    -0.88700
O2873       O  0.75163711  0.58719244  0.29967812    -0.87800
O2874       O  0.66364724  0.95059899  0.24753744    -0.88200
O2875       O  0.83672693  0.94985495  0.24993946    -0.87900
O2876       O  0.83644571  0.55002220  0.25021160    -0.87600
O2877       O  0.66319991  0.54940572  0.24747794    -0.88000
O2878       O  0.69881472  0.00111612  0.33484130    -0.88300
O2879       O  0.79894921  0.00032170  0.33704482    -0.89600
Zr2880     Zr  0.68886176  0.00064320  0.24784705     2.83100
Zr2881     Zr  0.81192991  0.00018400  0.25029474     2.83500
Zr2882     Zr  0.75017920  0.93863540  0.24901322     2.84100
Zr2883     Zr  0.74987748  0.56190933  0.24983636     2.83400
Zr2884     Zr  0.74933191  0.00029701  0.31115990     2.84200
O2885       O  0.78077001  0.53141648  0.28110591    -1.10200
O2886       O  0.71875115  0.96946044  0.27962592    -1.09700
C2887       C  0.67077250  0.00136550  0.32545122     1.05000
C2888       C  0.82725168  0.00095908  0.32845173     1.07600
C2889       C  0.67251032  0.92224555  0.24752485     1.05100
C2890       C  0.67194706  0.57772830  0.24745424     1.05500
C2891       C  0.82759065  0.57831083  0.24982656     1.05100
C2892       C  0.82769221  0.92155015  0.24931198     1.04600
C2893       C  0.74813139  0.92168920  0.32682947     1.05100
C2894       C  0.75225227  0.57839660  0.32800071     1.04600
H2895       H  0.79327696  0.95616085  0.29382968     0.31200
O2896       O  0.78079466  0.96906449  0.28088926    -1.31300
H2897       H  0.70587491  0.54438143  0.29365432     0.31300
O2898       O  0.71868154  0.53146385  0.28100769    -1.32700
O2899       O  0.70112517  0.66166895  0.49856082    -0.88100
O2900       O  0.69921604  0.83588136  0.49771018    -0.88300
O2901       O  0.66092649  0.75032103  0.04705527    -0.90000
O2902       O  0.66436485  0.74802447  0.44844299    -0.88700
O2903       O  0.70196019  0.74959358  0.41179123    -0.88300
O2904       O  0.69736446  0.75095911  0.08485447    -0.89700
O2905       O  0.66236422  0.79843748  0.49718164    -0.88200
O2906       O  0.66375349  0.69863510  0.49908857    -0.87700
Zr2907     Zr  0.68820241  0.74882844  0.49900075     2.84300
O2908       O  0.71898435  0.78028026  0.46836131    -1.09700
O2909       O  0.71825983  0.71881818  0.03040949    -1.10400
C2910       C  0.67286178  0.67040757  0.49855747     1.05000
C2911       C  0.67115871  0.82680416  0.49695155     1.04900
C2912       C  0.66931704  0.75063068  0.07544843     1.07900
C2913       C  0.67369781  0.74868148  0.42027275     1.05700
H2914       H  0.70456264  0.79430972  0.04249128     0.31300
O2915       O  0.71761777  0.78146662  0.03003367    -1.30700
H2916       H  0.70757424  0.70517372  0.45520761     0.30900
O2917       O  0.71983475  0.71819795  0.46827843    -1.32300
O2918       O  0.79810311  0.83802584  0.50232450    -0.88100
O2919       O  0.80052520  0.66322276  0.49923198    -0.89600
O2920       O  0.74935678  0.80020594  0.08649915    -0.88200
O2921       O  0.75025026  0.79894380  0.41180295    -0.88200
O2922       O  0.75263022  0.70016595  0.41293157    -0.88000
O2923       O  0.74708227  0.70073573  0.08726154    -0.87800
O2924       O  0.83509965  0.75463682  0.05096204    -0.88100
O2925       O  0.83786925  0.75128373  0.45158394    -0.87600
O2926       O  0.79760941  0.75295457  0.08768969    -0.88700
O2927       O  0.80124169  0.74997657  0.41397116    -0.87800
O2928       O  0.74927065  0.83720106  0.04898304    -0.88200
O2929       O  0.74884378  0.66324137  0.05018615    -0.87900
O2930       O  0.75323039  0.66285168  0.45005338    -0.87600
O2931       O  0.74922301  0.83621170  0.44904163    -0.88000
O2932       O  0.83550702  0.80115351  0.50297844    -0.88300
O2933       O  0.83709839  0.70095556  0.49989880    -0.89600
Zr2934     Zr  0.74906783  0.81169159  0.49961517     2.83100
Zr2935     Zr  0.75060250  0.68784516  0.49993350     2.83500
Zr2936     Zr  0.74816705  0.75049898  0.06153479     2.84100
Zr2937     Zr  0.75100508  0.74980518  0.43812134     2.83400
Zr2938     Zr  0.81149815  0.75072864  0.50083713     2.84200
O2939       O  0.78161804  0.71917133  0.46948036    -1.10200
O2940       O  0.77872510  0.78161728  0.03055686    -1.09700
C2941       C  0.82632625  0.82937583  0.50342904     1.05000
C2942       C  0.82856493  0.67252466  0.49902219     1.07600
C2943       C  0.74977338  0.82837383  0.07733421     1.05100
C2944       C  0.74955599  0.82724567  0.42066996     1.05500
C2945       C  0.75349416  0.67192145  0.42182320     1.05100
C2946       C  0.74766302  0.67236622  0.07841603     1.04600
C2947       C  0.82588692  0.75463307  0.07915546     1.05100
C2948       C  0.82930625  0.75075168  0.42317808     1.04600
H2949       H  0.79290182  0.70708033  0.04507223     0.31200
O2950       O  0.78022328  0.71944307  0.03179862    -1.31300
H2951       H  0.79397977  0.79457059  0.45652664     0.31300
O2952       O  0.78121145  0.78155515  0.46906832    -1.32700
C2953       C  0.73805125  0.63238116  0.15513784    -0.15000
C2954       C  0.74755379  0.60231717  0.14805128     0.07200
C2955       C  0.75667575  0.59548599  0.11788326    -0.15000
C2956       C  0.75655155  0.61821685  0.09533227    -0.15000
C2957       C  0.74727821  0.64832730  0.10240305     0.07200
C2958       C  0.73793334  0.65516282  0.13254047    -0.15000
H2959       H  0.73061560  0.63830441  0.17813000     0.11200
H2960       H  0.76436348  0.57263644  0.11174711     0.11200
H2961       H  0.76414311  0.61225222  0.07240557     0.11200
H2962       H  0.73040391  0.67807686  0.13864170     0.11200
C2963       C  0.74620509  0.90600391  0.11615646    -0.15000
C2964       C  0.75093353  0.89819569  0.14709885     0.07200
C2965       C  0.75566602  0.86724070  0.15489154    -0.15000
C2966       C  0.75561609  0.84459053  0.13221142    -0.15000
C2967       C  0.75066278  0.85240325  0.10127336     0.07200
C2968       C  0.74614814  0.88336531  0.09348807    -0.15000
H2969       H  0.74232151  0.92961853  0.10940385     0.11200
H2970       H  0.75956448  0.86047363  0.17850273     0.11200
H2971       H  0.75945381  0.82096617  0.13896858     0.11200
H2972       H  0.74221582  0.89014676  0.06989103     0.11200
C2973       C  0.74742072  0.90526778  0.38202554    -0.15000
C2974       C  0.74800325  0.89740105  0.35070985     0.07200
C2975       C  0.74905423  0.86611906  0.34252169    -0.15000
C2976       C  0.74960816  0.84333263  0.36513364    -0.15000
C2977       C  0.74908870  0.85127406  0.39649592     0.07200
C2978       C  0.74797247  0.88252360  0.40459593    -0.15000
H2979       H  0.74664420  0.92907911  0.38921894     0.11200
H2980       H  0.74959456  0.85916492  0.31862788     0.11200
H2981       H  0.75047918  0.81950552  0.35798723     0.11200
H2982       H  0.74753333  0.88953352  0.42846867     0.11200
C2983       C  0.76036346  0.59476505  0.38250738    -0.15000
C2984       C  0.75373031  0.60243765  0.35186088     0.07200
C2985       C  0.74812412  0.63326529  0.34428407    -0.15000
C2986       C  0.74845453  0.65586599  0.36696412    -0.15000
C2987       C  0.75443661  0.64812403  0.39770997     0.07200
C2988       C  0.76070162  0.61738943  0.40521033    -0.15000
H2989       H  0.76519282  0.57125386  0.38901453     0.11200
H2990       H  0.74293509  0.63991831  0.32089461     0.11200
H2991       H  0.74348063  0.67933673  0.36042943     0.11200
H2992       H  0.76573918  0.61075331  0.42864062     0.11200
C2993       C  0.86660531  0.65600053  0.25018886    -0.15000
C2994       C  0.89764212  0.64770649  0.25144869     0.07200
C2995       C  0.90537946  0.61637667  0.25203722    -0.15000
C2996       C  0.88266051  0.59390489  0.25128575    -0.15000
C2997       C  0.85163437  0.60220443  0.25004113     0.07200
C2998       C  0.84388005  0.63352231  0.24944396    -0.15000
H2999       H  0.85978039  0.67990531  0.24963423     0.11200
H3000       H  0.92902406  0.60912982  0.25300312     0.11200
H3001       H  0.88949595  0.56999997  0.25177291     0.11200
H3002       H  0.82023108  0.64075388  0.24844574     0.11200
C3003       C  0.86580716  0.84310080  0.24726019    -0.15000
C3004       C  0.89691007  0.85090273  0.25002573     0.07200
C3005       C  0.90490571  0.88205210  0.25256704    -0.15000
C3006       C  0.88250259  0.90487938  0.25222139    -0.15000
C3007       C  0.85144584  0.89718615  0.24938546     0.07200
C3008       C  0.84335868  0.86597337  0.24690557    -0.15000
H3009       H  0.85875525  0.81933539  0.24520626     0.11200
H3010       H  0.92856856  0.88891150  0.25489479     0.11200
H3011       H  0.88960824  0.92861715  0.25429996     0.11200
H3012       H  0.81967306  0.85914850  0.24463924     0.11200
C3013       C  0.63294761  0.65539940  0.24564526    -0.15000
C3014       C  0.60187577  0.64714988  0.24461451     0.07200
C3015       C  0.59414606  0.61584282  0.24322082    -0.15000
C3016       C  0.61687759  0.59333166  0.24382247    -0.15000
C3017       C  0.64789001  0.60159414  0.24580752     0.07200
C3018       C  0.65565580  0.63290961  0.24626779    -0.15000
H3019       H  0.63981902  0.67928541  0.24646360     0.11200
H3020       H  0.57049422  0.60865071  0.24204739     0.11200
H3021       H  0.61005712  0.56942931  0.24303862     0.11200
H3022       H  0.67929804  0.64014062  0.24745944     0.11200
C3023       C  0.59509183  0.88300538  0.24920565    -0.15000
C3024       C  0.60314648  0.85171369  0.24800272     0.07200
C3025       C  0.63426284  0.84390241  0.24611813    -0.15000
C3026       C  0.65670988  0.86675835  0.24567044    -0.15000
C3027       C  0.64863454  0.89802634  0.24717444     0.07200
C3028       C  0.61752426  0.90584521  0.24875083    -0.15000
H3029       H  0.57138356  0.88996027  0.25061117     0.11200
H3030       H  0.64135331  0.82009334  0.24500681     0.11200
H3031       H  0.68043099  0.85984100  0.24425503     0.11200
H3032       H  0.61041899  0.92965129  0.24987475     0.11200
C3033       C  0.86500655  0.74986237  0.15698012    -0.15000
C3034       C  0.89594607  0.75391834  0.14911236     0.07200
C3035       C  0.90336032  0.75975419  0.11823164    -0.15000
C3036       C  0.88058136  0.76077727  0.09572510    -0.15000
C3037       C  0.84973950  0.75588495  0.10345310     0.07200
C3038       C  0.84220419  0.75088688  0.13444950    -0.15000
H3039       H  0.85837469  0.74543712  0.18052742     0.11200
H3040       H  0.92684961  0.76339997  0.11133768     0.11200
H3041       H  0.88725987  0.76504878  0.07215951     0.11200
H3042       H  0.81872052  0.74710092  0.14128472     0.11200
C3043       C  0.63015881  0.74549881  0.15268169    -0.15000
C3044       C  0.59913152  0.74797339  0.14477408     0.07200
C3045       C  0.59123047  0.75130217  0.11361512    -0.15000
C3046       C  0.61394272  0.75244916  0.09101069    -0.15000
C3047       C  0.64500834  0.75018354  0.09910936     0.07200
C3048       C  0.65275746  0.74670820  0.13019821    -0.15000
H3049       H  0.63714788  0.74276386  0.17638191     0.11200
H3050       H  0.56755303  0.75330960  0.10669133     0.11200
H3051       H  0.60714507  0.75516766  0.06724560     0.11200
H3052       H  0.67638345  0.74470821  0.13728805     0.11200
C3053       C  0.63556292  0.75211603  0.34198279    -0.15000
C3054       C  0.60465664  0.74783159  0.34971293     0.07200
C3055       C  0.59684208  0.74351105  0.38073383    -0.15000
C3056       C  0.61924081  0.74373509  0.40349578    -0.15000
C3057       C  0.65010038  0.74824607  0.39587860     0.07200
C3058       C  0.65804067  0.75234082  0.36482489    -0.15000
H3059       H  0.64239150  0.75558797  0.31832917     0.11200
H3060       H  0.57332033  0.73994271  0.38755569     0.11200
H3061       H  0.61227618  0.74031995  0.42711734     0.11200
H3062       H  0.68159740  0.75594031  0.35813792     0.11200
C3063       C  0.90709580  0.75358082  0.38461195    -0.15000
C3064       C  0.89922625  0.75123424  0.35336611     0.07200
C3065       C  0.86816326  0.74931565  0.34535483    -0.15000
C3066       C  0.84557986  0.74927706  0.36797820    -0.15000
C3067       C  0.85342253  0.75119253  0.39924387     0.07200
C3068       C  0.88446339  0.75355035  0.40728387    -0.15000
H3069       H  0.93076477  0.75535692  0.39162420     0.11200
H3070       H  0.86118942  0.74761403  0.32154397     0.11200
H3071       H  0.82193300  0.74756253  0.36087436     0.11200
H3072       H  0.89134752  0.75530705  0.43111689     0.11200
C3073       C  0.90398202  0.86746964  0.00378919    -0.15000
C3074       C  0.89625926  0.89883501  0.00390644     0.07200
C3075       C  0.86518710  0.90708558  0.00403427    -0.15000
C3076       C  0.84243507  0.88456020  0.00332298    -0.15000
C3077       C  0.85019386  0.85323196  0.00252993     0.07200
C3078       C  0.88126148  0.84497561  0.00309139    -0.15000
H3079       H  0.92763876  0.86019632  0.00391707     0.11200
H3080       H  0.85836497  0.93099497  0.00433497     0.11200
H3081       H  0.81875856  0.89176236  0.00320211     0.11200
H3082       H  0.88814662  0.82107985  0.00276064     0.11200
C3083       C  0.90677160  0.63488187  0.00482250    -0.15000
C3084       C  0.89907118  0.60351041  0.00404818     0.07200
C3085       C  0.86799130  0.59531988  0.00310438    -0.15000
C3086       C  0.84524235  0.61781623  0.00267408    -0.15000
C3087       C  0.85288138  0.64918206  0.00321841     0.07200
C3088       C  0.88396422  0.65743546  0.00441458    -0.15000
H3089       H  0.93043928  0.64207730  0.00559904     0.11200
H3090       H  0.86111257  0.57143236  0.00244214     0.11200
H3091       H  0.82160989  0.61052466  0.00174616     0.11200
H3092       H  0.89075098  0.68135372  0.00491828     0.11200
C3093       C  0.59158331  0.86479046  0.99615398    -0.15000
C3094       C  0.59923984  0.89616680  0.99613780     0.07200
C3095       C  0.63027830  0.90450129  0.99574058    -0.15000
C3096       C  0.65309473  0.88214667  0.99584232    -0.15000
C3097       C  0.64555788  0.85078713  0.99628504     0.07200
C3098       C  0.61448516  0.84235225  0.99623703    -0.15000
H3099       H  0.56792304  0.85752395  0.99632871     0.11200
H3100       H  0.63710508  0.92841177  0.99561375     0.11200
H3101       H  0.67670916  0.88955004  0.99574939     0.11200
H3102       H  0.60779581  0.81840239  0.99647085     0.11200
C3103       C  0.63315605  0.59358043  0.99993791    -0.15000
C3104       C  0.60207573  0.60169933  0.99937796     0.07200
C3105       C  0.59418244  0.63301933  0.99953970    -0.15000
C3106       C  0.61682004  0.65563025  0.99999063    -0.15000
C3107       C  0.64794386  0.64750476  0.00025594     0.07200
C3108       C  0.65579524  0.61619216  0.00039447    -0.15000
H3109       H  0.64009373  0.56970172  0.99997827     0.11200
H3110       H  0.57048495  0.64015996  0.99925544     0.11200
H3111       H  0.60985495  0.67950309  0.99999959     0.11200
H3112       H  0.67948878  0.60906144  0.00070793     0.11200
C3113       C  0.90420393  0.49168140  0.36787472    -0.15000
C3114       C  0.89780906  0.50149310  0.39796258     0.07200
C3115       C  0.86818936  0.51182631  0.40501550    -0.15000
C3116       C  0.84542795  0.51227883  0.38248946    -0.15000
C3117       C  0.85179965  0.50234910  0.35243608     0.07200
C3118       C  0.88146654  0.49214198  0.34536661    -0.15000
H3119       H  0.92671268  0.48332375  0.36177975     0.11200
H3120       H  0.86264534  0.51983453  0.42791741     0.11200
H3121       H  0.82288901  0.52056210  0.38856593     0.11200
H3122       H  0.88703964  0.48406714  0.32249406     0.11200
C3123       C  0.63277906  0.49820513  0.40575154    -0.15000
C3124       C  0.60164405  0.49916905  0.39771973     0.07200
C3125       C  0.59380569  0.50063803  0.36642598    -0.15000
C3126       C  0.61646500  0.50099805  0.34376420    -0.15000
C3127       C  0.64758320  0.49991054  0.35178993     0.07200
C3128       C  0.65542454  0.49857954  0.38310392    -0.15000
H3129       H  0.63975917  0.49715220  0.42959464     0.11200
H3130       H  0.57010959  0.50153857  0.35935042     0.11200
H3131       H  0.60952272  0.50214502  0.31991755     0.11200
H3132       H  0.67911482  0.49774269  0.39021605     0.11200
C3133       C  0.59657157  0.49114879  0.13075870    -0.15000
C3134       C  0.60339225  0.50007612  0.10049118     0.07200
C3135       C  0.63355754  0.50866346  0.09337741    -0.15000
C3136       C  0.65625683  0.50858364  0.11607091    -0.15000
C3137       C  0.64933862  0.49986419  0.14640393     0.07200
C3138       C  0.61923236  0.49104829  0.15340601    -0.15000
H3139       H  0.57369248  0.48399500  0.13695298     0.11200
H3140       H  0.63956959  0.51579746  0.07033104     0.11200
H3141       H  0.67916544  0.51566667  0.10991028     0.11200
H3142       H  0.61316490  0.48383682  0.17641291     0.11200
C3143       C  0.87255784  0.48348766  0.09910587    -0.15000
C3144       C  0.90081360  0.49765631  0.10506481     0.07200
C3145       C  0.90553302  0.51192729  0.13361667    -0.15000
C3146       C  0.88221297  0.51243770  0.15559065    -0.15000
C3147       C  0.85377414  0.49866570  0.14942467     0.07200
C3148       C  0.84925177  0.48403537  0.12103534    -0.15000
H3149       H  0.86847702  0.47194669  0.07742130     0.11200
H3150       H  0.92697637  0.52328292  0.13867237     0.11200
H3151       H  0.88624868  0.52404390  0.17724594     0.11200
H3152       H  0.82777313  0.47279080  0.11589455     0.11200
C3153       C  0.50710990  0.63265630  0.40591384    -0.15000
C3154       C  0.49843948  0.60232518  0.39907410     0.07200
C3155       C  0.99754437  0.59434533  0.36740505    -0.15000
C3156       C  0.99724485  0.61673512  0.34454518    -0.15000
C3157       C  0.50056819  0.64721750  0.35228962     0.07200
C3158       C  0.50822459  0.65482781  0.38277204    -0.15000
H3159       H  0.51348752  0.63919326  0.42906136     0.11200
H3160       H  0.99687930  0.57042603  0.36055627     0.11200
H3161       H  0.99637632  0.60942433  0.32076973     0.11200
H3162       H  0.51528149  0.67792005  0.38876639     0.11200
C3163       C  0.50635477  0.86675598  0.40539676    -0.15000
C3164       C  0.50300382  0.89783741  0.39726685     0.07200
C3165       C  0.00064657  0.90585986  0.36672441    -0.15000
C3166       C  0.00200080  0.88352251  0.34376674    -0.15000
C3167       C  0.50440130  0.85177765  0.35169006     0.07200
C3168       C  0.50704256  0.84398857  0.38285963    -0.15000
H3169       H  0.50839021  0.85991672  0.42921786     0.11200
H3170       H  0.99869217  0.92970323  0.35993092     0.11200
H3171       H  0.00089429  0.89077247  0.32000149     0.11200
H3172       H  0.50951687  0.82027499  0.38992966     0.11200
C3173       C  0.49544652  0.86702726  0.09422321    -0.15000
C3174       C  0.49681425  0.89824965  0.10247950     0.07200
C3175       C  0.98556382  0.86948694  0.09720131    -0.15000
C3176       C  0.98592110  0.84681056  0.11980579    -0.15000
C3177       C  0.49606358  0.85208951  0.14805148     0.07200
C3178       C  0.49505356  0.84422654  0.11672771    -0.15000
H3179       H  0.49493331  0.86009729  0.07032445     0.11200
H3180       H  0.97267778  0.86549402  0.07632378     0.11200
H3181       H  0.97325705  0.82576715  0.11596494     0.11200
H3182       H  0.49431634  0.82042003  0.10949939     0.11200
C3183       C  0.49983254  0.59553582  0.13114157    -0.15000
C3184       C  0.49948829  0.60379516  0.09996735     0.07200
C3185       C  0.99896584  0.59380562  0.13398918    -0.15000
C3186       C  0.99771831  0.61671291  0.15631855    -0.15000
C3187       C  0.49813147  0.64919447  0.14625641     0.07200
C3188       C  0.49916986  0.61793024  0.15397989    -0.15000
H3189       H  0.50075105  0.57166756  0.13804736     0.11200
H3190       H  0.99562362  0.57016649  0.14095283     0.11200
H3191       H  0.99360129  0.61008036  0.17992802     0.11200
H3192       H  0.49967692  0.61063840  0.17774584     0.11200
O3193       O  0.50142004  0.54914001  0.58807214    -0.88100
O3194       O  0.49756777  0.54911492  0.91202004    -0.88300
O3195       O  0.55082915  0.58599627  0.49945770    -0.90000
O3196       O  0.95131227  0.58809539  0.49835552    -0.88700
O3197       O  0.91403610  0.55108676  0.49805888    -0.88300
O3198       O  0.58755228  0.54845439  0.49792573    -0.89700
O3199       O  0.49856675  0.58638609  0.94923754    -0.88200
O3200       O  0.50214396  0.58634766  0.55085506    -0.87700
Zr3201     Zr  0.50079776  0.56152680  0.50091987     2.84300
O3202       O  0.96843182  0.53193386  0.97058108    -1.09700
O3203       O  0.53158390  0.53031237  0.53172995    -1.10400
C3204       C  0.50188085  0.57742953  0.57911717     1.05000
C3205       C  0.49756305  0.57743574  0.92101506     1.04900
C3206       C  0.57888361  0.57683305  0.49816414     1.07900
C3207       C  0.92307184  0.57931293  0.49749344     1.05700
H3208       H  0.54321538  0.54329479  0.95435450     0.31300
O3209       O  0.53064370  0.53061492  0.96742796    -1.30700
H3210       H  0.95669300  0.54490929  0.54416008     0.30900
O3211       O  0.96929329  0.53191776  0.53138095    -1.32300
O3212       O  0.49804689  0.95036920  0.91318472    -0.88100
O3213       O  0.49982584  0.94901819  0.58589429    -0.89600
O3214       O  0.58507297  0.49887658  0.94783543    -0.88200
O3215       O  0.91109455  0.50183096  0.95335005    -0.88200
O3216       O  0.91336241  0.50071651  0.55016137    -0.88000
O3217       O  0.58691091  0.50025498  0.54942471    -0.87800
O3218       O  0.55055111  0.91319637  0.49814672    -0.88100
O3219       O  0.94826538  0.91377477  0.50321610    -0.87600
O3220       O  0.58776988  0.95025557  0.49704627    -0.88700
O3221       O  0.91175480  0.95155996  0.50296815    -0.87800
O3222       O  0.54760316  0.49904932  0.91101921    -0.88200
O3223       O  0.55047340  0.49886393  0.58724927    -0.87900
O3224       O  0.95050093  0.50069282  0.58727941    -0.87600
O3225       O  0.94737022  0.50159227  0.91537620    -0.88000
O3226       O  0.49702177  0.91328556  0.95053381    -0.88300
O3227       O  0.50007176  0.91188180  0.54848871    -0.89600
Zr3228     Zr  0.49880802  0.49932513  0.93757274     2.83100
Zr3229     Zr  0.50048690  0.49931040  0.56260475     2.83500
Zr3230     Zr  0.56140778  0.49905475  0.49992538     2.84100
Zr3231     Zr  0.93842353  0.50105078  0.50010715     2.83400
Zr3232     Zr  0.50058939  0.93795354  0.49913933     2.84200
O3233       O  0.96841763  0.96943363  0.53171569    -1.10200
O3234       O  0.52927232  0.96849133  0.96846570    -1.09700
C3235       C  0.49746123  0.92215276  0.92224611     1.05000
C3236       C  0.49954428  0.92073328  0.57681566     1.04000
C3237       C  0.57583090  0.49881985  0.91959219     1.05100
C3238       C  0.91932360  0.50197589  0.92481916     1.05500
C3239       C  0.92232809  0.50056012  0.57846660     1.05100
C3240       C  0.57847204  0.49985620  0.57782981     1.04600
C3241       C  0.57874496  0.92197366  0.49722911     1.05100
C3242       C  0.92022420  0.92314359  0.50381395     1.04600
H3243       H  0.54490699  0.95556165  0.54237340     0.31200
O3244       O  0.53207554  0.96857899  0.52990400    -1.31300
H3245       H  0.95435036  0.95638480  0.95703903     0.31300
O3246       O  0.96751481  0.96901492  0.96960185    -1.32700
O3247       O  0.50029055  0.70029046  0.66316676    -0.88100
O3248       O  0.49909004  0.70077883  0.83773460    -0.88300
O3249       O  0.54866575  0.66213375  0.74863404    -0.90000
O3250       O  0.94711734  0.66408364  0.75239576    -0.88700
O3251       O  0.91061877  0.70184883  0.75326265    -0.88300
O3252       O  0.58602010  0.69905912  0.74826381    -0.89700
O3253       O  0.49831094  0.66366410  0.80032002    -0.88200
O3254       O  0.49840274  0.66328734  0.70052407    -0.87700
Zr3255     Zr  0.49955697  0.68839368  0.75040394     2.84300
O3256       O  0.96790076  0.71919422  0.78183613    -1.09700
O3257       O  0.53105141  0.71850538  0.71921714    -1.10400
C3258       C  0.49929963  0.67208485  0.67221926     1.05000
C3259       C  0.49807250  0.67252937  0.82862990     1.04900
C3260       C  0.57687786  0.67086864  0.74796623     1.07900
C3261       C  0.91909027  0.67349650  0.75343006     1.05700
H3262       H  0.54411625  0.70535262  0.79394775     0.31300
O3263       O  0.53156928  0.71849422  0.78131065    -1.30700
H3264       H  0.95322382  0.70654949  0.70690408     0.30900
O3265       O  0.96644306  0.71915820  0.71943422    -1.32300
O3266       O  0.50197592  0.80016704  0.83745521    -0.88100
O3267       O  0.50024353  0.79925410  0.66273904    -0.89600
O3268       O  0.58814060  0.74812920  0.79919837    -0.88200
O3269       O  0.91356003  0.75101788  0.80208086    -0.88200
O3270       O  0.90982448  0.75192999  0.70276623    -0.88000
O3271       O  0.58786042  0.74866355  0.70052013    -0.87800
O3272       O  0.55207595  0.83638203  0.74922474    -0.88100
O3273       O  0.94871954  0.83691229  0.75202260    -0.87600
O3274       O  0.58865189  0.79866358  0.74943287    -0.88700
O3275       O  0.91141365  0.79999770  0.75270997    -0.87800
O3276       O  0.55152750  0.74894233  0.83682334    -0.88200
O3277       O  0.55049661  0.74933579  0.66364889    -0.87900
O3278       O  0.94637109  0.75187150  0.66503186    -0.87600
O3279       O  0.95099632  0.75152015  0.83889535    -0.88000
O3280       O  0.50177710  0.83736499  0.80017502    -0.88300
O3281       O  0.50082867  0.83684198  0.69970935    -0.89600
Zr3282     Zr  0.50152049  0.75042106  0.81220586     2.83100
Zr3283     Zr  0.50056872  0.74994850  0.68853697     2.83500
Zr3284     Zr  0.56225663  0.74939356  0.74997393     2.84100
Zr3285     Zr  0.93698683  0.75065063  0.75150650     2.83400
Zr3286     Zr  0.50174517  0.81232809  0.75009302     2.84200
O3287       O  0.96692909  0.78159481  0.71960472    -1.10200
O3288       O  0.53264501  0.78135395  0.78132908    -1.09700
C3289       C  0.50158704  0.82841696  0.82847807     1.05000
C3290       C  0.50019207  0.82759639  0.67145674     1.07600
C3291       C  0.57957018  0.74812439  0.82754712     1.05100
C3292       C  0.92274858  0.75157869  0.83025581     1.05500
C3293       C  0.91832359  0.75241851  0.67436162     1.05100
C3294       C  0.57873568  0.74890120  0.67232114     1.04600
C3295       C  0.58013690  0.82708409  0.74895030     1.05100
C3296       C  0.92048505  0.82818622  0.75267072     1.04600
H3297       H  0.54489092  0.79343036  0.70596244     0.31200
O3298       O  0.53206560  0.78090454  0.71892976    -1.31300
H3299       H  0.95607117  0.79429387  0.79535248     0.31300
O3300       O  0.96836793  0.78137685  0.78221487    -1.32700
O3301       O  0.83775018  0.00227794  0.70096340    -0.88100
O3302       O  0.66481217  0.99904231  0.69762979    -0.88300
O3303       O  0.75173499  0.94992530  0.66247252    -0.90000
O3304       O  0.75187733  0.55014275  0.66271297    -0.88700
O3305       O  0.75013657  0.58740059  0.69998018    -0.88300
O3306       O  0.75163480  0.91284238  0.69983081    -0.89700
O3307       O  0.70224407  0.99977615  0.66078924    -0.88200
O3308       O  0.80126831  0.00125780  0.66315358    -0.87700
Zr3309     Zr  0.75122035  0.00023282  0.68735703     2.84300
O3310       O  0.71886754  0.53134581  0.71776581    -1.09700
O3311       O  0.78216535  0.96956151  0.71849945    -1.10400
C3312       C  0.82925908  0.00220954  0.67249843     1.05000
C3313       C  0.67400652  0.99909866  0.66943153     1.04900
C3314       C  0.75154374  0.92165644  0.67156375     1.07900
C3315       C  0.75133052  0.57841058  0.67173649     1.05700
H3316       H  0.70749161  0.95610189  0.70444574     0.31300
O3317       O  0.71982572  0.96910983  0.71745645    -1.30700
H3318       H  0.79377974  0.54494172  0.70661970     0.30900
O3319       O  0.78086334  0.53203470  0.71911644    -1.32300
O3320       O  0.66178821  0.99833606  0.79731535    -0.88100
O3321       O  0.83492135  0.00253098  0.80141722    -0.89600
O3322       O  0.70170284  0.91263936  0.74815262    -0.88200
O3323       O  0.69899033  0.58705860  0.74861755    -0.88200
O3324       O  0.79705195  0.58915779  0.75118733    -0.88000
O3325       O  0.79998597  0.91399882  0.74961646    -0.87800
O3326       O  0.74722681  0.94954622  0.83559440    -0.88100
O3327       O  0.75091421  0.55014034  0.83702334    -0.87600
O3328       O  0.74926644  0.91262657  0.79799494    -0.88700
O3329       O  0.75059696  0.58721767  0.79962617    -0.87800
O3330       O  0.66431609  0.94948543  0.74765620    -0.88200
O3331       O  0.83695238  0.95127600  0.75046126    -0.87900
O3332       O  0.83442592  0.55231098  0.75280467    -0.87600
O3333       O  0.66240442  0.54942932  0.74794312    -0.88000
O3334       O  0.69818022  0.99927864  0.83517736    -0.88300
O3335       O  0.79741212  0.00134907  0.83819927    -0.89600
Zr3336     Zr  0.68844881  0.99993771  0.74815456     2.83100
Zr3337     Zr  0.81157052  0.00114804  0.75049208     2.83500
Zr3338     Zr  0.75060471  0.93891085  0.74904659     2.84100
Zr3339     Zr  0.74872770  0.56225098  0.74969133     2.83400
Zr3340     Zr  0.74855450  0.00024044  0.81130199     2.84200
O3341       O  0.77917511  0.53176355  0.78128283    -1.10200
O3342       O  0.71863954  0.96902418  0.77972062    -1.09700
C3343       C  0.67016678  0.99834418  0.82579348     1.05000
C3344       C  0.82568574  0.00232317  0.82965353     1.07600
C3345       C  0.67350316  0.92125833  0.74768959     1.05100
C3346       C  0.67096659  0.57779742  0.74803794     1.05500
C3347       C  0.82518151  0.58050385  0.75259842     1.05100
C3348       C  0.82804881  0.92294850  0.75024157     1.04600
C3349       C  0.74781318  0.92128349  0.82629349     1.05100
C3350       C  0.75167083  0.57833049  0.82789799     1.04600
H3351       H  0.79325869  0.95693851  0.79411939     0.31200
O3352       O  0.78070445  0.96967224  0.78108173    -1.31300
H3353       H  0.70453596  0.54441151  0.79320937     0.31300
O3354       O  0.71751895  0.53161659  0.78061995    -1.32700
O3355       O  0.70023872  0.66269828  0.00032749    -0.88100
O3356       O  0.69805735  0.83656651  0.99767234    -0.88300
O3357       O  0.66226596  0.74860138  0.54871595    -0.90000
O3358       O  0.66453878  0.74907747  0.94835668    -0.88700
O3359       O  0.70186900  0.74882860  0.91147554    -0.88300
O3360       O  0.69917512  0.74847041  0.58606746    -0.89700
O3361       O  0.66166249  0.79870929  0.99715110    -0.88200
O3362       O  0.66306236  0.69980190  0.99939894    -0.87700
Zr3363     Zr  0.68812725  0.74960380  0.99859006     2.84300
O3364       O  0.71857768  0.78075356  0.96752888    -1.09700
O3365       O  0.71859233  0.71798539  0.53066672    -1.10400
C3366       C  0.67200104  0.67154000  0.00005013     1.05000
C3367       C  0.67001040  0.82715724  0.99703091     1.04900
C3368       C  0.67107767  0.74840193  0.57708704     1.07900
C3369       C  0.67369826  0.74870176  0.92021253     1.05700
H3370       H  0.70485343  0.79318970  0.54294979     0.31300
O3371       O  0.71797651  0.78055977  0.53034857    -1.30700
H3372       H  0.70708266  0.70519155  0.95535440     0.30900
O3373       O  0.71944523  0.71827095  0.96827530    -1.32300
O3374       O  0.79797446  0.83808966  0.00021487    -0.88100
O3375       O  0.80046946  0.66370707  0.00177569    -0.89600
O3376       O  0.74833001  0.79926589  0.58703489    -0.88200
O3377       O  0.74970535  0.79865038  0.91121813    -0.88200
O3378       O  0.75235575  0.69982833  0.91307281    -0.88000
O3379       O  0.75103731  0.70036048  0.58716050    -0.87800
O3380       O  0.83518895  0.75267925  0.55141651    -0.88100
O3381       O  0.83694987  0.75068233  0.95164602    -0.87600
O3382       O  0.79752436  0.75285262  0.58798314    -0.88700
O3383       O  0.80060381  0.75015828  0.91377469    -0.87800
O3384       O  0.74735809  0.83659504  0.54988186    -0.88200
O3385       O  0.75106487  0.66303583  0.54994472    -0.87900
O3386       O  0.75266458  0.66255095  0.95029126    -0.87600
O3387       O  0.74736120  0.83636963  0.94802200    -0.88000
O3388       O  0.83516309  0.80098925  0.00128474    -0.88300
O3389       O  0.83700229  0.70146369  0.00222748    -0.89600
Zr3390     Zr  0.74844743  0.81232536  0.99879068     2.83100
Zr3391     Zr  0.75016331  0.68802957  0.00018659     2.83500
Zr3392     Zr  0.74890695  0.74977099  0.56143261     2.84100
Zr3393     Zr  0.75063997  0.74964145  0.93795499     2.83400
Zr3394     Zr  0.81076570  0.75086843  0.00084267     2.84200
O3395       O  0.78128967  0.71898340  0.96941618    -1.10200
O3396       O  0.77972141  0.78126304  0.53115151    -1.09700
C3397       C  0.82617304  0.82924578  0.00124760     1.05000
C3398       C  0.82854898  0.67300661  0.00235183     1.07600
C3399       C  0.74772583  0.82752426  0.57816442     1.05100
C3400       C  0.74808442  0.82701802  0.91978863     1.05500
C3401       C  0.75308266  0.67159138  0.92201048     1.05100
C3402       C  0.75142246  0.67207724  0.57822038     1.04600
C3403       C  0.82576498  0.75349208  0.57955259     1.05100
C3404       C  0.82855499  0.75063282  0.92322138     1.04600
H3405       H  0.79385801  0.70655557  0.54438124     0.31200
O3406       O  0.78097420  0.71902551  0.53141434    -1.31300
H3407       H  0.79338954  0.79448386  0.95605474     0.31300
O3408       O  0.78062970  0.78162957  0.96876825    -1.32700
C3409       C  0.75750126  0.63321605  0.65568332    -0.15000
C3410       C  0.75207865  0.60235961  0.64784050     0.07200
C3411       C  0.74707574  0.59459484  0.61692866    -0.15000
C3412       C  0.74715611  0.61722050  0.59435068    -0.15000
C3413       C  0.75220514  0.64812733  0.60217337     0.07200
C3414       C  0.75758201  0.65588215  0.63306794    -0.15000
H3415       H  0.76169883  0.63989262  0.67929019     0.11200
H3416       H  0.74268290  0.57105368  0.61015416     0.11200
H3417       H  0.74283708  0.61047909  0.57078956     0.11200
H3418       H  0.76181509  0.67945963  0.63981947     0.11200
C3419       C  0.73938924  0.90417101  0.61828747    -0.15000
C3420       C  0.75046118  0.89745790  0.64780145     0.07200
C3421       C  0.75965611  0.86728119  0.65458583    -0.15000
C3422       C  0.75834399  0.84443695  0.63207531    -0.15000
C3423       C  0.74781543  0.85133310  0.60235224     0.07200
C3424       C  0.73805892  0.88133990  0.59579632    -0.15000
H3425       H  0.73150975  0.92705856  0.61261898     0.11200
H3426       H  0.76823177  0.86140778  0.67717071     0.11200
H3427       H  0.76611004  0.82151876  0.63779674     0.11200
H3428       H  0.72935576  0.88719064  0.57326032     0.11200
C3429       C  0.73531821  0.90289633  0.87925379    -0.15000
C3430       C  0.74695690  0.89682129  0.84982028     0.07200
C3431       C  0.75794861  0.86717753  0.84312898    -0.15000
C3432       C  0.75799353  0.84434346  0.86569482    -0.15000
C3433       C  0.74705529  0.85069952  0.89541365     0.07200
C3434       C  0.73535522  0.88008941  0.90178968    -0.15000
H3435       H  0.72614432  0.92531709  0.88488764     0.11200
H3436       H  0.76708554  0.86178663  0.82062881     0.11200
H3437       H  0.76716333  0.82191961  0.86005469     0.11200
H3438       H  0.72620464  0.88549535  0.92427323     0.11200
C3439       C  0.76342027  0.59526636  0.88159396    -0.15000
C3440       C  0.75357789  0.60238856  0.85169780     0.07200
C3441       C  0.74491817  0.63265907  0.84484752    -0.15000
C3442       C  0.74512315  0.65514994  0.86764683    -0.15000
C3443       C  0.75409686  0.64787990  0.89777389     0.07200
C3444       C  0.76362995  0.61781202  0.90444869    -0.15000
H3445       H  0.77079621  0.57223479  0.88737290     0.11200
H3446       H  0.73724278  0.63884828  0.82202427     0.11200
H3447       H  0.73759820  0.67811026  0.86178568     0.11200
H3448       H  0.77116371  0.61169061  0.92733657     0.11200
C3449       C  0.86396837  0.65818472  0.74983305    -0.15000
C3450       C  0.89473248  0.65001951  0.75452519     0.07200
C3451       C  0.90209529  0.61908414  0.75969579    -0.15000
C3452       C  0.87940549  0.59667801  0.75942443    -0.15000
C3453       C  0.84879924  0.60464927  0.75395455     0.07200
C3454       C  0.84121994  0.63571034  0.74950804    -0.15000
H3455       H  0.85749266  0.68186039  0.74584789     0.11200
H3456       H  0.92547714  0.61207744  0.76379022     0.11200
H3457       H  0.88597566  0.57302065  0.76333842     0.11200
H3458       H  0.81782448  0.64263899  0.74531677     0.11200
C3459       C  0.86561964  0.84460718  0.75045251    -0.15000
C3460       C  0.89670389  0.85234393  0.75306578     0.07200
C3461       C  0.90491595  0.88348174  0.75526276    -0.15000
C3462       C  0.88267255  0.90640079  0.75426262    -0.15000
C3463       C  0.85167565  0.89871186  0.75115848     0.07200
C3464       C  0.84337569  0.86752689  0.74943783    -0.15000
H3465       H  0.85843275  0.82085341  0.74879158     0.11200
H3466       H  0.92860894  0.89024501  0.75756834     0.11200
H3467       H  0.88983429  0.93015705  0.75592362     0.11200
H3468       H  0.81968131  0.86073358  0.74715109     0.11200
C3469       C  0.63180518  0.65519689  0.74616785    -0.15000
C3470       C  0.60077857  0.64687918  0.74717905     0.07200
C3471       C  0.59300734  0.61557333  0.74806550    -0.15000
C3472       C  0.61577645  0.59312917  0.74829250    -0.15000
C3473       C  0.64680213  0.60150481  0.74756393     0.07200
C3474       C  0.65452892  0.63279730  0.74642495    -0.15000
H3475       H  0.63866352  0.67908648  0.74537669     0.11200
H3476       H  0.56934563  0.60835784  0.74883729     0.11200
H3477       H  0.60900868  0.56921801  0.74919709     0.11200
H3478       H  0.67817238  0.64008986  0.74578353     0.11200
C3479       C  0.59634644  0.88211960  0.74524061    -0.15000
C3480       C  0.60428733  0.85094074  0.74784555     0.07200
C3481       C  0.63539435  0.84296397  0.74943314    -0.15000
C3482       C  0.65792819  0.86572156  0.74911563    -0.15000
C3483       C  0.64985189  0.89695047  0.74716170     0.07200
C3484       C  0.61881512  0.90481048  0.74491950    -0.15000
H3485       H  0.57267163  0.88913116  0.74359811     0.11200
H3486       H  0.64237155  0.81916487  0.75122672     0.11200
H3487       H  0.68164228  0.85881387  0.75069998     0.11200
H3488       H  0.61174997  0.92857818  0.74307132     0.11200
C3489       C  0.86320524  0.75643982  0.65815925    -0.15000
C3490       C  0.89429549  0.75363629  0.65041822     0.07200
C3491       C  0.90248961  0.75198817  0.61924657    -0.15000
C3492       C  0.88028306  0.75256548  0.59637203    -0.15000
C3493       C  0.84920605  0.75468679  0.60400481     0.07200
C3494       C  0.84088295  0.75701097  0.63516445    -0.15000
H3495       H  0.85608717  0.75803745  0.68193640     0.11200
H3496       H  0.92617011  0.74992203  0.61236678     0.11200
H3497       H  0.88756738  0.75085383  0.57265648     0.11200
H3498       H  0.81712726  0.75895831  0.64184291     0.11200
C3499       C  0.63345855  0.74559753  0.65549524    -0.15000
C3500       C  0.60239349  0.74881569  0.64800141     0.07200
C3501       C  0.59410692  0.75198028  0.61695012    -0.15000
C3502       C  0.61630350  0.75171895  0.59390775    -0.15000
C3503       C  0.64734527  0.74835705  0.60137331     0.07200
C3504       C  0.65564484  0.74534846  0.63246595    -0.15000
H3505       H  0.64069899  0.74313006  0.67915543     0.11200
H3506       H  0.57041490  0.75474163  0.61035688     0.11200
H3507       H  0.60910396  0.75431019  0.57025330     0.11200
H3508       H  0.67933988  0.74271723  0.63910901     0.11200
C3509       C  0.63480446  0.74797652  0.84266919    -0.15000
C3510       C  0.60379228  0.74725812  0.85115991     0.07200
C3511       C  0.59613885  0.74620283  0.88245667    -0.15000
C3512       C  0.61889420  0.74653962  0.90476960    -0.15000
C3513       C  0.64985713  0.74786789  0.89632864     0.07200
C3514       C  0.65761247  0.74832300  0.86503349    -0.15000
H3515       H  0.64152021  0.74861135  0.81873549     0.11200
H3516       H  0.57252362  0.74535767  0.88981406     0.11200
H3517       H  0.61209678  0.74590045  0.92868261     0.11200
H3518       H  0.68126029  0.74916508  0.85776819     0.11200
C3519       C  0.90657499  0.75314548  0.88559585    -0.15000
C3520       C  0.89884268  0.75226677  0.85426816     0.07200
C3521       C  0.86781775  0.75164313  0.84591401    -0.15000
C3522       C  0.84508993  0.75120514  0.86828116    -0.15000
C3523       C  0.85278177  0.75145758  0.89960228     0.07200
C3524       C  0.88377437  0.75272488  0.90803278    -0.15000
H3525       H  0.93023102  0.75391662  0.89282999     0.11200
H3526       H  0.86096138  0.75120250  0.82201395     0.11200
H3527       H  0.82146630  0.75049318  0.86092557     0.11200
H3528       H  0.89048870  0.75324616  0.93197254     0.11200
C3529       C  0.90378083  0.86809465  0.50661456    -0.15000
C3530       C  0.89597662  0.89937955  0.50522732     0.07200
C3531       C  0.86487360  0.90754769  0.50458004    -0.15000
C3532       C  0.84220242  0.88490474  0.50448263    -0.15000
C3533       C  0.85011464  0.85358417  0.50501866     0.07200
C3534       C  0.88117430  0.84551674  0.50652463    -0.15000
H3535       H  0.92744903  0.86091047  0.50740603     0.11200
H3536       H  0.85799015  0.93142709  0.50371511     0.11200
H3537       H  0.81850432  0.89198036  0.50355995     0.11200
H3538       H  0.88816345  0.82166518  0.50725965     0.11200
C3539       C  0.90662001  0.63462206  0.49514302    -0.15000
C3540       C  0.89898997  0.60327479  0.49621991     0.07200
C3541       C  0.86792979  0.59494535  0.49687281    -0.15000
C3542       C  0.84514318  0.61736312  0.49758601    -0.15000
C3543       C  0.85278515  0.64873136  0.49753103     0.07200
C3544       C  0.88379093  0.65708047  0.49583557    -0.15000
H3545       H  0.93026031  0.64187867  0.49418026     0.11200
H3546       H  0.86111077  0.57103546  0.49734052     0.11200
H3547       H  0.82152336  0.61002347  0.49850841     0.11200
H3548       H  0.89051714  0.68101265  0.49529061     0.11200
C3549       C  0.59403392  0.86641348  0.49625867    -0.15000
C3550       C  0.60243734  0.89762607  0.49647156     0.07200
C3551       C  0.63363524  0.90523416  0.49611183    -0.15000
C3552       C  0.65583358  0.88222438  0.49590342    -0.15000
C3553       C  0.64742333  0.85101954  0.49610555     0.07200
C3554       C  0.61624934  0.84338650  0.49605783    -0.15000
H3555       H  0.57022571  0.85967072  0.49640647     0.11200
H3556       H  0.64098710  0.92898899  0.49617425     0.11200
H3557       H  0.67963701  0.88900001  0.49582153     0.11200
H3558       H  0.60894052  0.81961793  0.49611657     0.11200
C3559       C  0.63278557  0.59375492  0.48768471    -0.15000
C3560       C  0.60286171  0.60080669  0.49713522     0.07200
C3561       C  0.59607078  0.63103384  0.50619693    -0.15000
C3562       C  0.61878287  0.65352267  0.50654821    -0.15000
C3563       C  0.64886976  0.64639036  0.49776921     0.07200
C3564       C  0.65557311  0.61631554  0.48804547    -0.15000
H3565       H  0.63861354  0.57079456  0.48005687     0.11200
H3566       H  0.57327627  0.63724572  0.51362637     0.11200
H3567       H  0.61282241  0.67644804  0.51417479     0.11200
H3568       H  0.67840165  0.61023818  0.48061815     0.11200
C3569       C  0.90265541  0.50335311  0.86963750    -0.15000
C3570       C  0.89489244  0.50246424  0.90097322     0.07200
C3571       C  0.86372394  0.50187447  0.90902516    -0.15000
C3572       C  0.84102536  0.50192756  0.88626884    -0.15000
C3573       C  0.84894371  0.50256203  0.85490371     0.07200
C3574       C  0.88006103  0.50341848  0.84698654    -0.15000
H3575       H  0.92632715  0.50392133  0.86245183     0.11200
H3576       H  0.85682089  0.50122889  0.93290512     0.11200
H3577       H  0.81729886  0.50133475  0.89328703     0.11200
H3578       H  0.88712293  0.50402148  0.82315528     0.11200
C3579       C  0.63056161  0.49961606  0.90307768    -0.15000
C3580       C  0.59946592  0.49870935  0.89520619     0.07200
C3581       C  0.59133571  0.49790341  0.86391381    -0.15000
C3582       C  0.61386191  0.49810745  0.84110568    -0.15000
C3583       C  0.64499975  0.49912755  0.84912233     0.07200
C3584       C  0.65298794  0.49981901  0.88037153    -0.15000
H3585       H  0.63771439  0.50027373  0.92688188     0.11200
H3586       H  0.56758376  0.49714847  0.85699332     0.11200
H3587       H  0.60685561  0.49750014  0.81724961     0.11200
H3588       H  0.67668774  0.50059215  0.88744757     0.11200
C3589       C  0.59572456  0.49730011  0.63256820    -0.15000
C3590       C  0.60287690  0.50064250  0.60132240     0.07200
C3591       C  0.63360566  0.50482544  0.59274099    -0.15000
C3592       C  0.65667328  0.50533380  0.61491457    -0.15000
C3593       C  0.64948716  0.50166657  0.64614414     0.07200
C3594       C  0.61872418  0.49782459  0.65468160    -0.15000
H3595       H  0.57234389  0.49405778  0.64001841     0.11200
H3596       H  0.63990897  0.50771977  0.56886314     0.11200
H3597       H  0.68009016  0.50855642  0.60756930     0.11200
H3598       H  0.61230342  0.49490946  0.67852497     0.11200
C3599       C  0.86760955  0.49605098  0.59496889    -0.15000
C3600       C  0.89851455  0.50010467  0.60270382     0.07200
C3601       C  0.90643518  0.50344490  0.63386585    -0.15000
C3602       C  0.88395941  0.50305658  0.65668738    -0.15000
C3603       C  0.85300487  0.49936480  0.64890474     0.07200
C3604       C  0.84516577  0.49563560  0.61776064    -0.15000
H3605       H  0.86067628  0.49312592  0.57126096     0.11200
H3606       H  0.93002211  0.50657070  0.64068841     0.11200
H3607       H  0.89086245  0.50592582  0.68040769     0.11200
H3608       H  0.82160300  0.49248499  0.61086900     0.11200
C3609       C  0.49584422  0.63287605  0.90592604    -0.15000
C3610       C  0.49657480  0.60170012  0.89732748     0.07200
C3611       C  0.99492568  0.59416500  0.86776010    -0.15000
C3612       C  0.99469987  0.61646452  0.84477471    -0.15000
C3613       C  0.49678582  0.64827694  0.85233551     0.07200
C3614       C  0.49593909  0.65590157  0.88368862    -0.15000
H3615       H  0.49545976  0.63960029  0.92988712     0.11200
H3616       H  0.99492902  0.57021768  0.86097859     0.11200
H3617       H  0.99454292  0.60905613  0.82101344     0.11200
H3618       H  0.49563129  0.67965573  0.89112163     0.11200
C3619       C  0.50155727  0.86709776  0.90637287    -0.15000
C3620       C  0.49759896  0.89809269  0.89834177     0.07200
C3621       C  0.00025261  0.90597419  0.86675569    -0.15000
C3622       C  0.00154759  0.88338780  0.84406906    -0.15000
C3623       C  0.50026557  0.85236973  0.85251469     0.07200
C3624       C  0.50287666  0.84448211  0.88371204    -0.15000
H3625       H  0.50403272  0.86027582  0.93016025     0.11200
H3626       H  0.99990507  0.92983547  0.85975620     0.11200
H3627       H  0.00199478  0.89049216  0.82023894     0.11200
H3628       H  0.50617051  0.82084196  0.89068736     0.11200
C3629       C  0.50278100  0.86554361  0.59316063    -0.15000
C3630       C  0.49874555  0.89667522  0.60081883     0.07200
C3631       C  0.01588878  0.87093747  0.59894613    -0.15000
C3632       C  0.01498359  0.84813348  0.62148319    -0.15000
C3633       C  0.49930544  0.85126649  0.64710962     0.07200
C3634       C  0.50306458  0.84309369  0.61604893    -0.15000
H3635       H  0.50614148  0.85851012  0.56952464     0.11200
H3636       H  0.02796024  0.86642043  0.57768866     0.11200
H3637       H  0.02648951  0.82650064  0.61725530     0.11200
H3638       H  0.50659967  0.81937541  0.60938625     0.11200
C3639       C  0.49957063  0.59385289  0.63423989    -0.15000
C3640       C  0.50155326  0.60161783  0.60298990     0.07200
C3641       C  0.99229751  0.59431170  0.63271061    -0.15000
C3642       C  0.99075030  0.61708833  0.65522582    -0.15000
C3643       C  0.49951541  0.64791971  0.64835506     0.07200
C3644       C  0.49851417  0.61674135  0.65665593    -0.15000
H3645       H  0.49871243  0.57007147  0.64145655     0.11200
H3646       H  0.98587596  0.57106206  0.63876015     0.11200
H3647       H  0.98335885  0.61078035  0.67810875     0.11200
H3648       H  0.49702487  0.60991777  0.68052236     0.11200
loop_ 
_geom_bond_atom_site_label_1 
_geom_bond_atom_site_label_2 
_geom_bond_distance 
_geom_bond_site_symmetry_2 
_ccdc_geom_bond_type 
O1          Zr37   2.440   1_545  S
O1           C12   1.293       .  A
O2          Zr36   2.431   1_545  S
O2           C13   1.291       .  A
O3           Zr9   2.435       .  S
O3           C14   1.292       .  A
O4        Zr1833   2.443   1_554  S
O4           C15   1.293       .  A
O5          Zr39   2.426       .  S
O5           C15   1.291       .  A
O6          Zr38   2.445   1_544  S
O6           C14   1.294       .  A
O7         Zr465   2.442       .  S
O7           C13   1.293   1_455  A
O8           Zr9   2.425       .  S
O8           C12   1.290       .  A
Zr9        O1828   2.445   1_455  S
Zr9         O463   2.428   1_554  S
Zr9          O11   2.339       .  S
Zr9        O2290   2.337   1_454  S
Zr9        O1843   2.335   1_455  S
Zr9         O473   2.341   1_554  S
O10       Zr2289   2.342       .  S
O10       Zr1860   2.338       .  S
O10        Zr495   2.337   1_545  S
O11         Zr37   2.334   1_545  S
O11         Zr38   2.335   1_544  S
C12         C448   1.475       .  S
C13         C418   1.483       .  S
C14         C368   1.486       .  S
C15         C348   1.481       .  S
H16          O17   0.966       .  S
O17         Zr36   2.342   1_445  S
O17        Zr465   2.340       .  S
O17        Zr494   2.346   1_545  S
H18          O19   0.966       .  S
O19         Zr39   2.341       .  S
O19       Zr1833   2.336   1_554  S
O19       Zr1861   2.341       .  S
O20        Zr948   2.421       .  S
O20          C43   1.290       .  A
O21        Zr949   2.430       .  S
O21          C44   1.291       .  A
O22        Zr494   2.444       .  S
O22          C45   1.294       .  A
O23        Zr495   2.435   1_545  S
O23          C46   1.292   1_545  A
O24         Zr39   2.433       .  S
O24          C47   1.292       .  A
O25         Zr38   2.434   1_554  S
O25          C48   1.292       .  A
O26         Zr40   2.439   1_456  S
O26          C49   1.293       .  A
O27       Zr1864   2.440       .  S
O27          C50   1.293       .  A
O28        Zr950   2.443       .  S
O28          C49   1.294       .  A
O29        Zr951   2.434       .  S
O29          C50   1.292       .  A
O30         Zr36   2.434   1_455  S
O30          C45   1.292       .  A
O31         Zr37   2.442       .  S
O31          C48   1.294       .  A
O32       Zr1861   2.443       .  S
O32          C47   1.294       .  A
O33       Zr1860   2.438   1_565  S
O33          C46   1.293       .  A
O34        Zr496   2.436       .  S
O34          C43   1.293       .  A
O35         Zr40   2.440       .  S
O35          C44   1.292   1_655  A
Zr36        O932   2.417       .  S
Zr36       O1857   2.442   1_565  S
Zr36       O1834   2.331   1_565  S
Zr36        O954   2.340   1_655  S
Zr36       O2790   2.342       .  S
Zr37        O933   2.438       .  S
Zr37       O1856   2.432   1_465  S
Zr37       O1843   2.345   1_465  S
Zr37       O2777   2.343   1_455  S
Zr37        O964   2.338       .  S
Zr38        O478   2.425       .  S
Zr38        O940   2.441       .  S
Zr38        O473   2.341   1_565  S
Zr38       O1410   2.337       .  S
Zr38        O964   2.336   1_556  S
Zr39        O479   2.445   1_554  S
Zr39        O941   2.432   1_545  S
Zr39        O466   2.337   1_554  S
Zr39        O953   2.335   1_545  S
Zr39       O1422   2.340   1_544  S
Zr40       O1851   2.437       .  S
Zr40        O490   2.428   1_554  S
Zr40         O52   2.341   1_655  S
Zr40       O1865   2.334       .  S
Zr40        O498   2.341   1_654  S
Zr40       O2334   2.342   1_554  S
O41       Zr2773   2.338       .  S
O41        Zr951   2.339       .  S
O41       Zr1864   2.332       .  S
O42        Zr948   2.338   1_455  S
O42       Zr1406   2.334       .  S
O42        Zr496   2.339   1_455  S
C43         C428   1.475   1_655  S
C44         C438   1.470   1_455  S
C45         C388   1.485       .  S
C46         C378   1.483   1_565  S
C47         C408   1.484       .  S
C48         C398   1.485       .  S
C49         C358   1.483       .  S
C50         C338   1.482       .  S
H51          O52   0.966       .  S
O52        Zr949   2.339       .  S
O52        Zr950   2.340   1_554  S
H53          O54   0.965       .  S
O54       Zr2772   2.337       .  S
O54       Zr1407   2.343       .  S
O54       Zr2320   2.338       .  S
O55         Zr91   2.431   1_455  S
O55          C66   1.292       .  A
O56         Zr90   2.446       .  S
O56          C67   1.295       .  A
O57         Zr63   2.432       .  S
O57          C68   1.291       .  A
O58       Zr1887   2.453       .  S
O58          C69   1.296       .  A
O59         Zr93   2.415       .  S
O59          C69   1.288       .  A
O60         Zr92   2.430       .  S
O60          C68   1.291       .  A
O61         Zr63   2.424   1_655  S
O61          C67   1.290   1_655  A
O62         Zr63   2.433       .  S
O62          C66   1.291       .  A
Zr63       O1882   2.437   1_455  S
Zr63         O65   2.335       .  S
Zr63         O71   2.337       .  S
Zr63       O1888   2.336   1_455  S
Zr63       O1897   2.337   1_455  S
O64         Zr93   2.336       .  S
O64       Zr1887   2.338       .  S
O64       Zr1914   2.337       .  S
O65         Zr91   2.342   1_455  S
O65         Zr92   2.336       .  S
C66         C451   1.475       .  S
C67         C421   1.482       .  S
C68         C278   1.480       .  S
C69         C258   1.481       .  S
H70          O71   0.965       .  S
O71         Zr90   2.341       .  S
O71         Zr92   2.333       .  S
H72          O73   0.965       .  S
O73         Zr93   2.344       .  S
O73       Zr1887   2.337       .  S
O73       Zr1915   2.340       .  S
O74         Zr90   2.452       .  S
O74          C97   1.296       .  A
O75         Zr91   2.436       .  S
O75          C98   1.291       .  A
O76         Zr92   2.444       .  S
O76          C99   1.293       .  A
O77         Zr93   2.433       .  S
O77         C100   1.291       .  A
O78         Zr93   2.427       .  S
O78         C101   1.291       .  A
O79         Zr92   2.434       .  S
O79         C102   1.292       .  A
O80         Zr94   2.449       .  S
O80         C103   1.295       .  A
O81       Zr1918   2.432       .  S
O81         C104   1.291       .  A
O82         Zr92   2.419       .  S
O82         C103   1.289       .  A
O83         Zr93   2.434       .  S
O83         C104   1.292       .  A
O84         Zr90   2.427       .  S
O84          C99   1.291       .  A
O85         Zr91   2.442   1_455  S
O85         C102   1.294       .  A
O86       Zr1915   2.446       .  S
O86         C101   1.294       .  A
O87       Zr1914   2.451       .  S
O87         C100   1.295       .  A
O88         Zr94   2.412       .  S
O88          C97   1.288       .  A
O89         Zr94   2.430       .  S
O89          C98   1.291   1_455  A
Zr90       O1911   2.437   1_455  S
Zr90         O96   2.337       .  S
Zr90       O1888   2.336   1_455  S
Zr90       O1932   2.339   1_455  S
Zr91       O1910   2.440       .  S
Zr91        O106   2.340   1_655  S
Zr91       O1897   2.344       .  S
Zr91       O1919   2.335       .  S
Zr92         O96   2.339       .  S
Zr92        O106   2.345       .  S
Zr93         O95   2.340       .  S
Zr93        O108   2.337       .  S
Zr94       O1905   2.451   1_455  S
Zr94         O96   2.340       .  S
Zr94        O106   2.334       .  S
Zr94       O1919   2.336   1_455  S
Zr94       O1932   2.343   1_455  S
O95       Zr1915   2.339       .  S
O95       Zr1918   2.339       .  S
C97         C431   1.477       .  S
C98         C441   1.469       .  S
C99         C318   1.480       .  S
C100        C328   1.488       .  S
C101        C298   1.483       .  S
C102        C308   1.483       .  S
C103        C288   1.481       .  S
C104        C268   1.481       .  S
H105        O106   0.965       .  S
H107        O108   0.966       .  S
O108      Zr1914   2.341       .  S
O108      Zr1918   2.343       .  S
O109       Zr145   2.436       .  S
O109        C120   1.292       .  A
O110       Zr144   2.436       .  S
O110        C121   1.293       .  A
O111       Zr117   2.436       .  S
O111        C122   1.292       .  A
O112      Zr1029   2.441       .  S
O112        C123   1.294       .  A
O113       Zr147   2.430       .  S
O113        C123   1.291       .  A
O114       Zr146   2.428       .  S
O114        C122   1.291       .  A
O115       Zr117   2.435       .  S
O115        C121   1.292       .  A
O116       Zr117   2.442       .  S
O116        C120   1.293       .  A
Zr117      O1024   2.430       .  S
Zr117       O119   2.335       .  S
Zr117       O125   2.343       .  S
Zr117      O1030   2.342       .  S
Zr117      O1039   2.340       .  S
O118       Zr147   2.336       .  S
O118      Zr1029   2.339       .  S
O118      Zr1056   2.334   1_545  S
O119       Zr145   2.341       .  S
O119       Zr146   2.341       .  S
C120       C1323   1.478       .  S
C121       C1313   1.482       .  S
C122        C228   1.473       .  S
C123        C218   1.481       .  S
H124        O125   0.966       .  S
O125       Zr144   2.341       .  S
O125       Zr146   2.337       .  S
H126        O127   0.965       .  S
O127       Zr147   2.342       .  S
O127      Zr1029   2.338       .  S
O127      Zr1057   2.336       .  S
O128       Zr144   2.434       .  S
O128        C151   1.292       .  A
O129       Zr145   2.435       .  S
O129        C152   1.293       .  A
O130       Zr146   2.433       .  S
O130        C153   1.291       .  A
O131       Zr147   2.436       .  S
O131        C154   1.292       .  A
O132       Zr147   2.437       .  S
O132        C155   1.292       .  A
O133       Zr146   2.427       .  S
O133        C156   1.291       .  A
O134       Zr148   2.447       .  S
O134        C157   1.294       .  A
O135      Zr1060   2.436       .  S
O135        C158   1.292       .  A
O136       Zr146   2.430       .  S
O136        C157   1.291       .  A
O137       Zr147   2.432       .  S
O137        C158   1.291       .  A
O138       Zr144   2.437       .  S
O138        C153   1.293       .  A
O139       Zr145   2.445       .  S
O139        C156   1.294       .  A
O140      Zr1057   2.431       .  S
O140        C155   1.291       .  A
O141      Zr1056   2.434   1_545  S
O141        C154   1.292       .  A
O142       Zr148   2.455       .  S
O142        C151   1.296       .  A
O143       Zr148   2.444       .  S
O143        C152   1.294       .  A
Zr144      O1053   2.443       .  S
Zr144       O150   2.343       .  S
Zr144      O1030   2.337       .  S
Zr144      O1074   2.338       .  S
Zr145      O1052   2.443       .  S
Zr145       O160   2.339       .  S
Zr145      O1039   2.340       .  S
Zr145      O1061   2.339       .  S
Zr146       O150   2.338       .  S
Zr146       O160   2.336       .  S
Zr147       O149   2.336       .  S
Zr147       O162   2.339       .  S
Zr148      O1047   2.437       .  S
Zr148       O150   2.340       .  S
Zr148       O160   2.338       .  S
Zr148      O1061   2.343       .  S
Zr148      O1074   2.346       .  S
O149      Zr1057   2.336       .  S
O149      Zr1060   2.338       .  S
C151       C1303   1.487       .  S
C152       C1293   1.484       .  S
C153        C291   1.482       .  S
C154        C281   1.481       .  S
C155        C261   1.481       .  S
C156        C271   1.482       .  S
C157        C238   1.473       .  S
C158        C248   1.472       .  S
H159        O160   0.965       .  S
H161        O162   0.966       .  S
O162      Zr1056   2.344   1_545  S
O162      Zr1060   2.345       .  S
O163       Zr199   2.441       .  S
O163        C174   1.293       .  A
O164       Zr198   2.442       .  S
O164        C175   1.294       .  A
O165       Zr627   2.433   1_554  S
O165        C176   1.292       .  A
O166       Zr171   2.431       .  S
O166        C177   1.292       .  A
O167       Zr201   2.433       .  S
O167        C177   1.291       .  A
O168       Zr200   2.434       .  S
O168        C176   1.292       .  A
O169       Zr171   2.433       .  S
O169        C175   1.292       .  A
O170       Zr171   2.440       .  S
O170        C174   1.293       .  A
Zr171       O621   2.436       .  S
Zr171       O172   2.341       .  S
Zr171       O181   2.340       .  S
Zr171       O629   2.337       .  S
Zr171       O635   2.344       .  S
O172       Zr198   2.338       .  S
O172       Zr201   2.337       .  S
O173       Zr200   2.334       .  S
O173       Zr627   2.336   1_554  S
O173       Zr655   2.334   1_554  S
C174        C827   1.486       .  S
C175        C817   1.484       .  S
C176        C311   1.482       .  S
C177        C321   1.478       .  S
H178        O179   0.966       .  S
O179       Zr200   2.340       .  S
O179       Zr627   2.343   1_554  S
O179       Zr654   2.340   1_554  S
H180        O181   0.965       .  S
O181       Zr199   2.338       .  S
O181       Zr201   2.340       .  S
O182       Zr198   2.434       .  S
O182        C205   1.292       .  A
O183       Zr199   2.445       .  S
O183        C206   1.294       .  A
O184       Zr200   2.422       .  S
O184        C207   1.290       .  A
O185       Zr201   2.428       .  S
O185        C208   1.290       .  A
O186       Zr201   2.421       .  S
O186        C209   1.289       .  A
O187       Zr200   2.427       .  S
O187        C210   1.290       .  A
O188       Zr658   2.442       .  S
O188        C211   1.294       .  A
O189       Zr202   2.440       .  S
O189        C212   1.293       .  A
O190       Zr200   2.438       .  S
O190        C211   1.292       .  A
O191       Zr201   2.441       .  S
O191        C212   1.293       .  A
O192       Zr654   2.434   1_554  S
O192        C207   1.292       .  A
O193       Zr655   2.439   1_554  S
O193        C210   1.293       .  A
O194       Zr199   2.435       .  S
O194        C209   1.292       .  A
O195       Zr198   2.444       .  S
O195        C208   1.293       .  A
O196       Zr202   2.442       .  S
O196        C205   1.294       .  A
O197       Zr202   2.440       .  S
O197        C206   1.293       .  A
Zr198       O648   2.437       .  S
Zr198       O216   2.335       .  S
Zr198       O635   2.345       .  S
Zr198       O660   2.337       .  S
Zr199       O649   2.435       .  S
Zr199       O203   2.338       .  S
Zr199       O629   2.340       .  S
Zr199       O670   2.337       .  S
Zr200       O204   2.336       .  S
Zr200       O214   2.336       .  S
Zr201       O203   2.338       .  S
Zr201       O216   2.335       .  S
Zr202       O644   2.447       .  S
Zr202       O203   2.338       .  S
Zr202       O216   2.338       .  S
Zr202       O660   2.333       .  S
Zr202       O670   2.341       .  S
O204       Zr654   2.336   1_554  S
O204       Zr658   2.333       .  S
C205        C797   1.484       .  S
C206        C807   1.488       .  S
C207        C231   1.472       .  S
C208        C241   1.473       .  S
C209        C251   1.468       .  S
C210        C221   1.481       .  S
C211        C301   1.485       .  S
C212        C331   1.486       .  S
H213        O214   0.965       .  S
O214       Zr655   2.337   1_554  S
O214       Zr658   2.340       .  S
H215        O216   0.965       .  S
C217        C218   1.407       .  A
C217        C222   1.397       .  A
C217        H223   1.083       .  S
C218        C219   1.405       .  A
C219        C220   1.395       .  A
C219        H224   1.083       .  S
C220        C221   1.405       .  A
C220        H225   1.083       .  S
C221        C222   1.407       .  A
C222        H226   1.083       .  S
C227        C228   1.404       .  A
C227        C232   1.395       .  A
C227        H233   1.083       .  S
C228        C229   1.404       .  A
C229        C230   1.395       .  A
C229        H234   1.083       .  S
C230        C231   1.403       .  A
C230        H235   1.083       .  S
C231        C232   1.405       .  A
C232        H236   1.083       .  S
C237        C238   1.404       .  A
C237        C242   1.399       .  A
C237        H243   1.083       .  S
C238        C239   1.404       .  A
C239        C240   1.396       .  A
C239        H244   1.083       .  S
C240        C241   1.403       .  A
C240        H245   1.083       .  S
C241        C242   1.405       .  A
C242        H246   1.083       .  S
C247        C248   1.404       .  A
C247        C252   1.394       .  A
C247        H253   1.083       .  S
C248        C249   1.404       .  A
C249        C250   1.396       .  A
C249        H254   1.083       .  S
C250        C251   1.403       .  A
C250        H255   1.083       .  S
C251        C252   1.403       .  A
C252        H256   1.084       .  S
C257        C258   1.410       .  A
C257        C262   1.397       .  A
C257        H263   1.083       .  S
C258        C259   1.402       .  A
C259        C260   1.395       .  A
C259        H264   1.083       .  S
C260        C261   1.407       .  A
C260        H265   1.083       .  S
C261        C262   1.405       .  A
C262        H266   1.083       .  S
C267        C268   1.405       .  A
C267        C272   1.396       .  A
C267        H273   1.083       .  S
C268        C269   1.407       .  A
C269        C270   1.396       .  A
C269        H274   1.083       .  S
C270        C271   1.404       .  A
C270        H275   1.083       .  S
C271        C272   1.408       .  A
C272        H276   1.083       .  S
C277        C278   1.405       .  A
C277        C282   1.394       .  A
C277        H283   1.083       .  S
C278        C279   1.406       .  A
C279        C280   1.397       .  A
C279        H284   1.083       .  S
C280        C281   1.406       .  A
C280        H285   1.083       .  S
C281        C282   1.406       .  A
C282        H286   1.083       .  S
C287        C288   1.404       .  A
C287        C292   1.394       .  A
C287        H293   1.083       .  S
C288        C289   1.408       .  A
C289        C290   1.398       .  A
C289        H294   1.083       .  S
C290        C291   1.407       .  A
C290        H295   1.083       .  S
C291        C292   1.405       .  A
C292        H296   1.083       .  S
C297        C298   1.408       .  A
C297        C302   1.399       .  A
C297        H303   1.083       .  S
C298        C299   1.405       .  A
C299        C300   1.395       .  A
C299        H304   1.083       .  S
C300        C301   1.405       .  A
C300        H305   1.083       .  S
C301        C302   1.408       .  A
C302        H306   1.083       .  S
C307        C308   1.407       .  A
C307        C312   1.396       .  A
C307        H313   1.083       .  S
C308        C309   1.406       .  A
C309        C310   1.397       .  A
C309        H314   1.083       .  S
C310        C311   1.407       .  A
C310        H315   1.083       .  S
C311        C312   1.406       .  A
C312        H316   1.083       .  S
C317        C318   1.406       .  A
C317        C322   1.397       .  A
C317        H323   1.083       .  S
C318        C319   1.406       .  A
C319        C320   1.394       .  A
C319        H324   1.083       .  S
C320        C321   1.404       .  A
C320        H325   1.083       .  S
C321        C322   1.407       .  A
C322        H326   1.083       .  S
C327        C328   1.406       .  A
C327        C332   1.398       .  A
C327        H333   1.083       .  S
C328        C329   1.409       .  A
C329        C330   1.399       .  A
C329        H334   1.083       .  S
C330        C331   1.406       .  A
C330        H335   1.083       .  S
C331        C332   1.407       .  A
C332        H336   1.083       .  S
C337        C338   1.406       .  A
C337        C342   1.397       .  A
C337        H343   1.083       .  S
C338        C339   1.406   1_554  A
C339        C340   1.397       .  A
C339        H344   1.083       .  S
C340        C341   1.406   1_556  A
C340        H345   1.083       .  S
C341        C661   1.482       .  S
C341        C342   1.407       .  A
C342        H346   1.083       .  S
C347        C348   1.406   1_556  A
C347        C352   1.398       .  A
C347        H353   1.083       .  S
C348        C349   1.406       .  A
C349        C350   1.394       .  A
C349        H354   1.083       .  S
C350        C351   1.404       .  A
C350        H355   1.083       .  S
C351        C662   1.481       .  S
C351        C352   1.408   1_554  A
C352        H356   1.083       .  S
C357        C358   1.407       .  A
C357        C362   1.400       .  A
C357        H363   1.083       .  S
C358        C359   1.406   1_556  A
C359        C360   1.395       .  A
C359        H364   1.083       .  S
C360        C361   1.404   1_554  A
C360        H365   1.083       .  S
C361        C631   1.482       .  S
C361        C362   1.408       .  A
C362        H366   1.083       .  S
C367        C368   1.406   1_556  A
C367        C372   1.399       .  A
C367        H373   1.083       .  S
C368        C369   1.407       .  A
C369        C370   1.398       .  A
C369        H374   1.083       .  S
C370        C371   1.407       .  A
C370        H375   1.083       .  S
C371        C630   1.486       .  S
C371        C372   1.406   1_554  A
C372        H376   1.083       .  S
C377        C378   1.406       .  A
C377        C382   1.395       .  A
C377        H383   1.083       .  S
C378        C379   1.407   1_545  A
C379        C380   1.397   1_565  A
C379        H384   1.083       .  S
C380        C381   1.405       .  A
C380        H385   1.083   1_545  S
C381       C1064   1.481       .  S
C381        C382   1.407       .  A
C382        H386   1.083       .  S
C387        C388   1.405       .  A
C387        C392   1.396       .  A
C387        H393   1.083       .  S
C388        C389   1.408       .  A
C389        C390   1.400   1_565  A
C389        H394   1.083   1_565  S
C390        C391   1.408   1_545  A
C390        H395   1.083       .  S
C391       C1063   1.486       .  S
C391        C392   1.406       .  A
C392        H396   1.083       .  S
C397        C398   1.405   1_545  A
C397        C402   1.396       .  A
C397        H403   1.083       .  S
C398        C399   1.408       .  A
C399        C400   1.400       .  A
C399        H404   1.083       .  S
C400        C401   1.407   1_565  A
C400        H405   1.083       .  S
C401       C1033   1.485       .  S
C401        C402   1.406       .  A
C402        H406   1.083       .  S
C407        C408   1.407       .  A
C407        C412   1.395       .  A
C407        H413   1.083       .  S
C408        C409   1.407       .  A
C409        C410   1.399       .  A
C409        H414   1.083       .  S
C410        C411   1.407       .  A
C410        H415   1.083       .  S
C411       C1032   1.483       .  S
C411        C412   1.405       .  A
C412        H416   1.083       .  S
C417        C418   1.405       .  A
C417        C422   1.394       .  A
C417        H423   1.083       .  S
C418       C2243   1.407   1_655  A
C419        C420   1.395       .  A
C419       C2242   1.407       .  A
C419        H424   1.083       .  S
C420       C2245   1.404       .  A
C420        H425   1.083       .  S
C421        C422   1.404   1_455  A
C421       C2244   1.408       .  A
C422        H426   1.083       .  S
C427        C428   1.404       .  A
C427        C432   1.394       .  A
C427        H433   1.083       .  S
C428       C2253   1.406   1_455  A
C429        C430   1.396       .  A
C429       C2252   1.405       .  A
C429        H434   1.083       .  S
C430       C2255   1.406       .  A
C430        H435   1.083       .  S
C431        C432   1.403       .  A
C431       C2254   1.408   1_455  A
C432        H436   1.083       .  S
C437        C438   1.404   1_455  A
C437        C442   1.396       .  A
C437        H443   1.083       .  S
C438       C2263   1.403       .  A
C439        C440   1.397       .  A
C439       C2262   1.404       .  A
C439        H444   1.083       .  S
C440       C2265   1.406       .  A
C440        H445   1.083       .  S
C441        C442   1.403   1_655  A
C441       C2264   1.404       .  A
C442        H446   1.083       .  S
C447        C448   1.406   1_655  A
C447        C452   1.395       .  A
C447        H453   1.083       .  S
C448       C2273   1.403       .  A
C449        C450   1.398       .  A
C449       C2272   1.406       .  A
C449        H454   1.083       .  S
C450       C2275   1.406       .  A
C450        H455   1.083       .  S
C451        C452   1.404   1_455  A
C451       C2274   1.406       .  A
C452        H456   1.083       .  S
O457       Zr493   2.434       .  S
O457        C468   1.292       .  A
O458       Zr492   2.435   1_545  S
O458        C469   1.292       .  A
O459       Zr465   2.433       .  S
O459        C470   1.292       .  A
O460      Zr2289   2.444       .  S
O460        C471   1.294       .  A
O461       Zr495   2.436   1_545  S
O461        C471   1.292       .  A
O462       Zr494   2.443   1_545  S
O462        C470   1.294       .  A
O463        C469   1.291   1_455  A
O464       Zr465   2.449   1_655  S
O464        C468   1.295   1_655  A
Zr465      O2284   2.436   1_455  S
Zr465      O1834   2.337   1_455  S
Zr465       O467   2.341       .  S
Zr465      O2299   2.336   1_455  S
O466      Zr1833   2.334       .  S
O466      Zr2316   2.339       .  S
O467       Zr493   2.336       .  S
O467       Zr494   2.339   1_545  S
C468        C904   1.481   1_455  S
C469        C874   1.480       .  S
C470        C824   1.485       .  S
C471        C804   1.487       .  S
H472        O473   0.966       .  S
O473       Zr492   2.341   1_445  S
H474        O475   0.965       .  S
O475      Zr2289   2.338       .  S
O475      Zr2317   2.338   1_545  S
O475       Zr495   2.336   1_545  S
O476      Zr1404   2.419       .  S
O476        C499   1.290       .  A
O477      Zr1405   2.433       .  S
O477        C500   1.291       .  A
O478        C501   1.291       .  A
O479        C502   1.294       .  A
O480       Zr495   2.437       .  S
O480        C503   1.293       .  A
O481       Zr494   2.453       .  S
O481        C504   1.295       .  A
O482       Zr496   2.447   1_455  S
O482        C505   1.295       .  A
O483      Zr2320   2.437       .  S
O483        C506   1.293       .  A
O484      Zr1406   2.431       .  S
O484        C505   1.292       .  A
O485      Zr1407   2.438       .  S
O485        C506   1.293       .  A
O486       Zr492   2.453   1_455  S
O486        C501   1.296       .  A
O487       Zr493   2.433       .  S
O487        C504   1.292   1_545  A
O488      Zr2317   2.447       .  S
O488        C503   1.295       .  A
O489      Zr2316   2.420       .  S
O489        C502   1.290       .  A
O490        C499   1.291       .  A
O491       Zr496   2.446       .  S
O491        C500   1.294       .  A
Zr492      O1388   2.427       .  S
Zr492      O2313   2.448   1_565  S
Zr492      O2290   2.339   1_565  S
Zr492      O1410   2.338   1_655  S
Zr492      O3246   2.344       .  S
Zr493      O1389   2.436   1_445  S
Zr493      O2312   2.429   1_455  S
Zr493      O2299   2.340   1_455  S
Zr493      O3233   2.341   1_445  S
Zr493      O1420   2.338   1_545  S
Zr494      O1396   2.441       .  S
Zr494       O954   2.339       .  S
Zr494      O1420   2.334       .  S
Zr495      O1397   2.431       .  S
Zr495      O1409   2.338       .  S
Zr495       O966   2.340       .  S
Zr496      O2307   2.440       .  S
Zr496      O2321   2.336       .  S
Zr496      O1878   2.343       .  S
Zr496       O508   2.339   1_655  S
O497      Zr3229   2.337       .  S
O497      Zr1407   2.339       .  S
O497      Zr2320   2.339       .  S
O498      Zr1404   2.343   1_455  S
O498       Zr950   2.337       .  S
C499        C884   1.473       .  S
C500        C894   1.476       .  S
C501        C844   1.485       .  S
C502        C834   1.480       .  S
C503        C864   1.488   1_565  S
C504        C854   1.485       .  S
C505        C814   1.485       .  S
C506        C794   1.483       .  S
H507        O508   0.966       .  S
O508      Zr1405   2.343   1_455  S
O508      Zr1406   2.345       .  S
H509        O510   0.966       .  S
O510      Zr3228   2.343       .  S
O510       Zr951   2.341   1_556  S
O510      Zr1864   2.341   1_556  S
O511       Zr547   2.445       .  S
O511        C522   1.294       .  A
O512       Zr546   2.438       .  S
O512        C523   1.293       .  A
O513       Zr519   2.450   1_455  S
O513        C524   1.295       .  A
O514      Zr2343   2.447       .  S
O514        C525   1.295       .  A
O515       Zr549   2.427       .  S
O515        C525   1.290       .  A
O516       Zr548   2.434       .  S
O516        C524   1.292       .  A
O517       Zr519   2.437   1_455  S
O517        C523   1.293       .  A
O518       Zr519   2.437       .  S
O518        C522   1.293       .  A
Zr519      O2338   2.444       .  S
Zr519      O2344   2.339       .  S
Zr519       O521   2.337   1_655  S
Zr519      O2353   2.340       .  S
Zr519       O527   2.339   1_655  S
O520      Zr2343   2.333       .  S
O520      Zr2370   2.334       .  S
O520       Zr549   2.337       .  S
O521       Zr547   2.334   1_455  S
O521       Zr548   2.334       .  S
C522        C907   1.480       .  S
C523        C877   1.483       .  S
C524        C734   1.489       .  S
C525        C714   1.484       .  S
H526        O527   0.966       .  S
O527       Zr546   2.342       .  S
O527       Zr548   2.339       .  S
H528        O529   0.965       .  S
O529      Zr2343   2.339       .  S
O529      Zr2371   2.340       .  S
O529       Zr549   2.335       .  S
O530       Zr546   2.437       .  S
O530        C553   1.293   1_455  A
O531       Zr547   2.443       .  S
O531        C554   1.294       .  A
O532       Zr548   2.429       .  S
O532        C555   1.291       .  A
O533       Zr549   2.422       .  S
O533        C556   1.289       .  A
O534       Zr549   2.435       .  S
O534        C557   1.292       .  A
O535       Zr548   2.430       .  S
O535        C558   1.291       .  A
O536       Zr550   2.436   1_455  S
O536        C559   1.292       .  A
O537      Zr2374   2.451       .  S
O537        C560   1.295       .  A
O538       Zr548   2.431       .  S
O538        C559   1.291       .  A
O539       Zr549   2.426       .  S
O539        C560   1.290       .  A
O540       Zr546   2.438       .  S
O540        C555   1.293       .  A
O541       Zr547   2.448   1_455  S
O541        C558   1.295       .  A
O542      Zr2371   2.445       .  S
O542        C557   1.294       .  A
O543      Zr2370   2.447       .  S
O543        C556   1.294       .  A
O544       Zr550   2.421       .  S
O544        C553   1.290       .  A
O545       Zr550   2.431       .  S
O545        C554   1.291       .  A
Zr546      O2367   2.440   1_455  S
Zr546      O2344   2.335   1_455  S
Zr546       O552   2.338       .  S
Zr546      O2388   2.344   1_455  S
Zr547      O2366   2.429       .  S
Zr547      O2353   2.341       .  S
Zr547      O2375   2.340       .  S
Zr547       O562   2.339   1_655  S
Zr548       O552   2.338       .  S
Zr548       O562   2.338       .  S
Zr549       O551   2.333       .  S
Zr549       O564   2.341       .  S
Zr550      O2361   2.435       .  S
Zr550      O2375   2.334       .  S
Zr550       O552   2.340   1_655  S
Zr550      O2388   2.342       .  S
Zr550       O562   2.341   1_655  S
O551      Zr2371   2.341       .  S
O551      Zr2374   2.340       .  S
C553        C887   1.476       .  S
C554        C897   1.475       .  S
C555        C774   1.481       .  S
C556        C784   1.481       .  S
C557        C754   1.486       .  S
C558        C764   1.486       .  S
C559        C744   1.481       .  S
C560        C724   1.484       .  S
H561        O562   0.966       .  S
H563        O564   0.966       .  S
O564      Zr2370   2.341       .  S
O564      Zr2374   2.340       .  S
O565       Zr601   2.427       .  S
O565        C576   1.291       .  A
O566       Zr600   2.421       .  S
O566        C577   1.290       .  A
O567       Zr573   2.436       .  S
O567        C578   1.292       .  A
O568      Zr1485   2.435       .  S
O568        C579   1.292       .  A
O569       Zr603   2.428       .  S
O569        C579   1.291       .  A
O570       Zr602   2.433       .  S
O570        C578   1.292       .  A
O571       Zr573   2.455       .  S
O571        C577   1.296       .  A
O572       Zr573   2.446       .  S
O572        C576   1.295       .  A
Zr573      O1480   2.432       .  S
Zr573      O1486   2.338       .  S
Zr573       O575   2.336       .  S
Zr573      O1495   2.343       .  S
Zr573       O581   2.341       .  S
O574      Zr1485   2.339       .  S
O574      Zr1512   2.339   1_545  S
O574       Zr603   2.336       .  S
O575       Zr601   2.337       .  S
O575       Zr602   2.339       .  S
C576       C1779   1.482       .  S
C577       C1769   1.483       .  S
C578        C684   1.480       .  S
C579        C674   1.477       .  S
H580        O581   0.966       .  S
O581       Zr600   2.344       .  S
O581       Zr602   2.337       .  S
H582        O583   0.965       .  S
O583      Zr1485   2.340       .  S
O583      Zr1513   2.339       .  S
O583       Zr603   2.341       .  S
O584       Zr600   2.434       .  S
O584        C607   1.292       .  A
O585       Zr601   2.417       .  S
O585        C608   1.289       .  A
O586       Zr602   2.441       .  S
O586        C609   1.293       .  A
O587       Zr603   2.435       .  S
O587        C610   1.292       .  A
O588       Zr603   2.436       .  S
O588        C611   1.292       .  A
O589       Zr602   2.430       .  S
O589        C612   1.291       .  A
O590       Zr604   2.427       .  S
O590        C613   1.291       .  A
O591      Zr1516   2.428       .  S
O591        C614   1.291       .  A
O592       Zr602   2.435       .  S
O592        C613   1.292       .  A
O593       Zr603   2.425       .  S
O593        C614   1.290       .  A
O594       Zr600   2.428       .  S
O594        C609   1.291       .  A
O595       Zr601   2.449       .  S
O595        C612   1.295       .  A
O596      Zr1513   2.440       .  S
O596        C611   1.293       .  A
O597      Zr1512   2.454   1_545  S
O597        C610   1.296       .  A
O598       Zr604   2.439       .  S
O598        C607   1.293       .  A
O599       Zr604   2.453       .  S
O599        C608   1.295       .  A
Zr600      O1509   2.439       .  S
Zr600      O1486   2.333       .  S
Zr600       O606   2.336       .  S
Zr600      O1530   2.336       .  S
Zr601      O1508   2.450       .  S
Zr601      O1495   2.340       .  S
Zr601      O1517   2.336       .  S
Zr601       O616   2.341       .  S
Zr602       O606   2.336       .  S
Zr602       O616   2.341       .  S
Zr603       O605   2.338       .  S
Zr603       O618   2.343       .  S
Zr604      O1503   2.426       .  S
Zr604      O1517   2.338       .  S
Zr604       O606   2.338       .  S
Zr604      O1530   2.341       .  S
Zr604       O616   2.336       .  S
O605      Zr1513   2.338       .  S
O605      Zr1516   2.339       .  S
C607       C1759   1.484       .  S
C608       C1749   1.483       .  S
C609        C747   1.482       .  S
C610        C737   1.490       .  S
C611        C717   1.485       .  S
C612        C727   1.483       .  S
C613        C694   1.478       .  S
C614        C704   1.470       .  S
H615        O616   0.965       .  S
H617        O618   0.966       .  S
O618      Zr1512   2.339   1_545  S
O618      Zr1516   2.346       .  S
O619       Zr655   2.449   1_554  S
O619        C630   1.295       .  A
O620       Zr654   2.447       .  S
O620        C631   1.295       .  A
O621        C632   1.292       .  A
O622       Zr627   2.437       .  S
O622        C633   1.293       .  A
O623       Zr657   2.437       .  S
O623        C633   1.292       .  A
O624       Zr656   2.447       .  S
O624        C632   1.294       .  A
O625       Zr627   2.428       .  S
O625        C631   1.291       .  A
O626       Zr627   2.434   1_554  S
O626        C630   1.292       .  A
Zr627       O628   2.337       .  S
Zr627       O637   2.335       .  S
O628       Zr654   2.340       .  S
O628       Zr657   2.334       .  S
O629       Zr656   2.333       .  S
C632        C767   1.487       .  S
C633        C777   1.484       .  S
H634        O635   0.966       .  S
O635       Zr656   2.344       .  S
H636        O637   0.965       .  S
O637       Zr655   2.341       .  S
O637       Zr657   2.340       .  S
O638       Zr654   2.440   1_554  S
O638        C661   1.293       .  A
O639       Zr655   2.445   1_554  S
O639        C662   1.295       .  A
O640       Zr656   2.418       .  S
O640        C663   1.289       .  A
O641       Zr657   2.432       .  S
O641        C664   1.292       .  A
O642       Zr657   2.427       .  S
O642        C665   1.291       .  A
O643       Zr656   2.427       .  S
O643        C666   1.290       .  A
O644        C667   1.295       .  A
O645       Zr658   2.438   1_556  S
O645        C668   1.293       .  A
O646       Zr656   2.436       .  S
O646        C667   1.292       .  A
O647       Zr657   2.432       .  S
O647        C668   1.292       .  A
O648        C663   1.293       .  A
O649        C666   1.292       .  A
O650       Zr655   2.431       .  S
O650        C665   1.292       .  A
O651       Zr654   2.429       .  S
O651        C664   1.291       .  A
O652       Zr658   2.435       .  S
O652        C661   1.292       .  A
O653       Zr658   2.426       .  S
O653        C662   1.291       .  A
Zr654       O672   2.339       .  S
Zr655       O659   2.341       .  S
Zr656       O660   2.339       .  S
Zr656       O670   2.341       .  S
Zr657       O659   2.341       .  S
Zr657       O672   2.341       .  S
Zr658       O659   2.341   1_554  S
Zr658       O672   2.338   1_554  S
C663        C687   1.477       .  S
C664        C697   1.478       .  S
C665        C707   1.470       .  S
C666        C677   1.477       .  S
C667        C757   1.486       .  S
C668        C787   1.480       .  S
H669        O670   0.965       .  S
H671        O672   0.966       .  S
C673        C674   1.406       .  A
C673        C678   1.396       .  A
C673        H679   1.083       .  S
C674        C675   1.405       .  A
C675        C676   1.394       .  A
C675        H680   1.083       .  S
C676        C677   1.404       .  A
C676        H681   1.083       .  S
C677        C678   1.406       .  A
C678        H682   1.083       .  S
C683        C684   1.406       .  A
C683        C688   1.396       .  A
C683        H689   1.083       .  S
C684        C685   1.406       .  A
C685        C686   1.394       .  A
C685        H690   1.083       .  S
C686        C687   1.406       .  A
C686        H691   1.083       .  S
C687        C688   1.405       .  A
C688        H692   1.083       .  S
C693        C694   1.406       .  A
C693        C698   1.394       .  A
C693        H699   1.083       .  S
C694        C695   1.405       .  A
C695        C696   1.395       .  A
C695        H700   1.083       .  S
C696        C697   1.406       .  A
C696        H701   1.083       .  S
C697        C698   1.405       .  A
C698        H702   1.083       .  S
C703        C704   1.403       .  A
C703        C708   1.392       .  A
C703        H709   1.083       .  S
C704        C705   1.405       .  A
C705        C706   1.394       .  A
C705        H710   1.083       .  S
C706        C707   1.405       .  A
C706        H711   1.083       .  S
C707        C708   1.403       .  A
C708        H712   1.083       .  S
C713        C714   1.409       .  A
C713        C718   1.399       .  A
C713        H719   1.083       .  S
C714        C715   1.404       .  A
C715        C716   1.395       .  A
C715        H720   1.083       .  S
C716        C717   1.406       .  A
C716        H721   1.083       .  S
C717        C718   1.407       .  A
C718        H722   1.083       .  S
C723        C724   1.408       .  A
C723        C728   1.397       .  A
C723        H729   1.083       .  S
C724        C725   1.405       .  A
C725        C726   1.397       .  A
C725        H730   1.083       .  S
C726        C727   1.406       .  A
C726        H731   1.083       .  S
C727        C728   1.407       .  A
C728        H732   1.083       .  S
C733        C734   1.408       .  A
C733        C738   1.400       .  A
C733        H739   1.083       .  S
C734        C735   1.407       .  A
C735        C736   1.399       .  A
C735        H740   1.083       .  S
C736        C737   1.406       .  A
C736        H741   1.083       .  S
C737        C738   1.409       .  A
C738        H742   1.083       .  S
C743        C744   1.405       .  A
C743        C748   1.396       .  A
C743        H749   1.083       .  S
C744        C745   1.407       .  A
C745        C746   1.396       .  A
C745        H750   1.083       .  S
C746        C747   1.405       .  A
C746        H751   1.083       .  S
C747        C748   1.408       .  A
C748        H752   1.083       .  S
C753        C754   1.408       .  A
C753        C758   1.400       .  A
C753        H759   1.083       .  S
C754        C755   1.405       .  A
C755        C756   1.397       .  A
C755        H760   1.083       .  S
C756        C757   1.406       .  A
C756        H761   1.083       .  S
C757        C758   1.408       .  A
C758        H762   1.083       .  S
C763        C764   1.408       .  A
C763        C768   1.398       .  A
C763        H769   1.083       .  S
C764        C765   1.405       .  A
C765        C766   1.399       .  A
C765        H770   1.083       .  S
C766        C767   1.408       .  A
C766        H771   1.083       .  S
C767        C768   1.406       .  A
C768        H772   1.083       .  S
C773        C774   1.407       .  A
C773        C778   1.398       .  A
C773        H779   1.083       .  S
C774        C775   1.405       .  A
C775        C776   1.395       .  A
C775        H780   1.083       .  S
C776        C777   1.406       .  A
C776        H781   1.083       .  S
C777        C778   1.407       .  A
C778        H782   1.083       .  S
C783        C784   1.404       .  A
C783        C788   1.396       .  A
C783        H789   1.083       .  S
C784        C785   1.408       .  A
C785        C786   1.396       .  A
C785        H790   1.083       .  S
C786        C787   1.405       .  A
C786        H791   1.083       .  S
C787        C788   1.406       .  A
C788        H792   1.083       .  S
C793        C794   1.406       .  A
C793        C798   1.396       .  A
C793        H799   1.083       .  S
C794        C795   1.406       .  A
C795        C796   1.398       .  A
C795        H800   1.083       .  S
C796        C797   1.407       .  A
C796        H801   1.083       .  S
C797        C798   1.406       .  A
C798        H802   1.083       .  S
C803        C804   1.406       .  A
C803        C808   1.399       .  A
C803        H809   1.083       .  S
C804        C805   1.408       .  A
C805        C806   1.399       .  A
C805        H810   1.083       .  S
C806        C807   1.407       .  A
C806        H811   1.083       .  S
C807        C808   1.408       .  A
C808        H812   1.083       .  S
C813        C814   1.406       .  A
C813        C818   1.399       .  A
C813        H819   1.083       .  S
C814        C815   1.408       .  A
C815        C816   1.396       .  A
C815        H820   1.083       .  S
C816        C817   1.405       .  A
C816        H821   1.083       .  S
C817        C818   1.408       .  A
C818        H822   1.083       .  S
C823        C824   1.406       .  A
C823        C828   1.399       .  A
C823        H829   1.083       .  S
C824        C825   1.408       .  A
C825        C826   1.397       .  A
C825        H830   1.083       .  S
C826        C827   1.406       .  A
C826        H831   1.083       .  S
C827        C828   1.408       .  A
C828        H832   1.083       .  S
C833        C834   1.407       .  A
C833        C838   1.396       .  A
C833        H839   1.083       .  S
C834        C835   1.404       .  A
C835        C836   1.396       .  A
C835        H840   1.083   1_545  S
C836        C837   1.406       .  A
C836        H841   1.083   1_545  S
C837       C1520   1.483       .  S
C837        C838   1.406       .  A
C838        H842   1.083       .  S
C843        C844   1.408   1_545  A
C843        C848   1.397       .  A
C843        H849   1.083       .  S
C844        C845   1.405       .  A
C845        C846   1.400       .  A
C845        H850   1.083       .  S
C846        C847   1.409       .  A
C846        H851   1.083       .  S
C847       C1519   1.485       .  S
C847        C848   1.405   1_565  A
C848        H852   1.083       .  S
C853        C854   1.407   1_545  A
C853        C858   1.399       .  A
C853        H859   1.083       .  S
C854        C855   1.406       .  A
C855        C856   1.399       .  A
C855        H860   1.083       .  S
C856        C857   1.404       .  A
C856        H861   1.083       .  S
C857       C1489   1.483       .  S
C857        C858   1.408   1_565  A
C858        H862   1.083       .  S
C863        C864   1.408       .  A
C863        C868   1.399       .  A
C863        H869   1.083       .  S
C864        C865   1.406   1_545  A
C865        C866   1.401       .  A
C865        H870   1.083       .  S
C866        C867   1.409   1_565  A
C866        H871   1.083       .  S
C867       C1488   1.491       .  S
C867        C868   1.406       .  A
C868        H872   1.083       .  S
C873        C874   1.406       .  A
C873        C878   1.396       .  A
C873        H879   1.083       .  S
C874       C2699   1.405   1_655  A
C875       C2698   1.404       .  A
C875        C876   1.393       .  A
C875        H880   1.083       .  S
C876       C2701   1.406       .  A
C876        H881   1.083       .  S
C877       C2700   1.406       .  A
C877        C878   1.406   1_455  A
C878        H882   1.083       .  S
C883        C884   1.405       .  A
C883        C888   1.391   1_655  A
C883        H889   1.083   1_655  S
C884       C2709   1.405       .  A
C885       C2708   1.403       .  A
C885        C886   1.396       .  A
C885        H890   1.084       .  S
C886       C2711   1.402       .  A
C886        H891   1.083       .  S
C887       C2710   1.407       .  A
C887        C888   1.404   1_655  A
C888        H892   1.083       .  S
C893        C894   1.406       .  A
C893        C898   1.399       .  A
C893        H899   1.083       .  S
C894       C2719   1.403   1_655  A
C895       C2718   1.405       .  A
C895        C896   1.398       .  A
C895        H900   1.083       .  S
C896       C2721   1.405       .  A
C896        H901   1.083       .  S
C897       C2720   1.404   1_655  A
C897        C898   1.405       .  A
C898        H902   1.083       .  S
C903        C904   1.405       .  A
C903        C908   1.400       .  A
C903        H909   1.083       .  S
C904       C2729   1.406   1_655  A
C905       C2728   1.406       .  A
C905        C906   1.397       .  A
C905        H910   1.083       .  S
C906       C2731   1.405       .  A
C906        H911   1.083       .  S
C907       C2730   1.405   1_655  A
C907        C908   1.406       .  A
C908        H912   1.083       .  S
O913       Zr949   2.425       .  S
O913        C924   1.291       .  A
O914       Zr948   2.429       .  S
O914        C925   1.291       .  A
O915       Zr921   2.444       .  S
O915        C926   1.294   1_554  A
O916      Zr2745   2.426       .  S
O916        C927   1.290       .  A
O917       Zr951   2.436   1_556  S
O917        C927   1.293       .  A
O918       Zr950   2.435       .  S
O918        C926   1.292       .  A
O919      Zr1377   2.426       .  S
O919        C925   1.291   1_455  A
O920       Zr921   2.423       .  S
O920        C924   1.290       .  A
Zr921      O2740   2.446   1_455  S
Zr921      O1375   2.437   1_454  S
Zr921      O3202   2.337   1_454  S
Zr921       O923   2.340       .  S
Zr921      O2755   2.341   1_455  S
Zr921      O1385   2.336   1_554  S
O922      Zr3201   2.337       .  S
O922      Zr2772   2.340       .  S
O922      Zr1407   2.337       .  S
O923       Zr949   2.336       .  S
O923       Zr950   2.338   1_554  S
C924       C1360   1.473       .  S
C925       C1330   1.477       .  S
C926       C1280   1.485       .  S
C927       C1260   1.479       .  S
H928        O929   0.965       .  S
O929      Zr1377   2.338       .  S
O929       Zr948   2.338   1_455  S
O929      Zr1406   2.337       .  S
H930        O931   0.965       .  S
O931      Zr2745   2.334   1_554  S
O931      Zr2773   2.340       .  S
O931       Zr951   2.337       .  S
O932        C955   1.289       .  A
O933        C956   1.292       .  A
O934      Zr1406   2.443       .  S
O934        C957   1.294       .  A
O935      Zr1407   2.438       .  S
O935        C958   1.293       .  A
O936       Zr951   2.437       .  S
O936        C959   1.293       .  A
O937       Zr950   2.443   1_554  S
O937        C960   1.293       .  A
O938       Zr952   2.445   1_456  S
O938        C961   1.294       .  A
O939      Zr2776   2.439       .  S
O939        C962   1.293       .  A
O940        C961   1.293       .  A
O941        C962   1.292       .  A
O942       Zr948   2.436   1_455  S
O942        C957   1.292       .  A
O943       Zr949   2.438       .  S
O943        C960   1.293       .  A
O944      Zr2773   2.440       .  S
O944        C959   1.293       .  A
O945      Zr2772   2.437       .  S
O945        C958   1.293       .  A
O946      Zr1408   2.446       .  S
O946        C955   1.294       .  A
O947       Zr952   2.428       .  S
O947        C956   1.291   1_655  A
Zr948      O2769   2.435       .  S
Zr948      O2746   2.332       .  S
Zr948      O1878   2.340       .  S
Zr949      O2768   2.444   1_455  S
Zr949      O2755   2.341   1_455  S
Zr949      O1865   2.336   1_455  S
Zr950      O1390   2.436       .  S
Zr950      O1385   2.344       .  S
Zr951      O1391   2.442   1_554  S
Zr951      O1378   2.335   1_554  S
Zr952      O2763   2.437       .  S
Zr952      O1402   2.432   1_554  S
Zr952      O2777   2.338       .  S
Zr952      O1410   2.336   1_654  S
Zr952      O3246   2.341   1_554  S
Zr952       O964   2.342   1_655  S
O953      Zr1861   2.334   1_565  S
O953      Zr2776   2.330       .  S
O954      Zr1408   2.338   1_455  S
C955       C1340   1.479   1_655  S
C956       C1350   1.471       .  S
C957       C1300   1.486       .  S
C958       C1290   1.482       .  S
C959       C1320   1.478       .  S
C960       C1310   1.485       .  S
C961       C1270   1.488       .  S
C962       C1250   1.484       .  S
H963        O964   0.965       .  S
H965        O966   0.965       .  S
O966      Zr1860   2.337   1_565  S
O966      Zr3232   2.339       .  S
O967      Zr1003   2.427       .  S
O967        C978   1.291   1_655  A
O968      Zr1002   2.430   1_655  S
O968        C979   1.291       .  A
O969       Zr975   2.442   1_455  S
O969        C980   1.293       .  A
O970      Zr2799   2.447       .  S
O970        C981   1.295       .  A
O971      Zr1005   2.429       .  S
O971        C981   1.291       .  A
O972      Zr1004   2.438       .  S
O972        C980   1.293       .  A
O973       Zr975   2.431       .  S
O973        C979   1.292       .  A
O974       Zr975   2.424       .  S
O974        C978   1.290   1_655  A
Zr975      O2794   2.437       .  S
Zr975      O2800   2.335       .  S
Zr975       O977   2.337   1_655  S
Zr975      O2809   2.344       .  S
Zr975       O983   2.337   1_655  S
O976      Zr2799   2.338       .  S
O976      Zr2826   2.334       .  S
O976      Zr1005   2.338       .  S
O977      Zr1003   2.341   1_455  S
O977      Zr1004   2.336       .  S
C978       C1363   1.473       .  S
C979       C1333   1.479       .  S
C980       C1190   1.486       .  S
C981       C1170   1.484       .  S
H982        O983   0.965       .  S
O983      Zr1002   2.337       .  S
O983      Zr1004   2.340       .  S
H984        O985   0.965       .  S
O985      Zr2799   2.341       .  S
O985      Zr2827   2.338       .  S
O985      Zr1005   2.341       .  S
O986      Zr1002   2.431       .  S
O986       C1009   1.291       .  A
O987      Zr1003   2.432       .  S
O987       C1010   1.291   1_655  A
O988      Zr1004   2.446       .  S
O988       C1011   1.294       .  A
O989      Zr1005   2.434       .  S
O989       C1012   1.292       .  A
O990      Zr1005   2.439       .  S
O990       C1013   1.293       .  A
O991      Zr1004   2.446       .  S
O991       C1014   1.295       .  A
O992      Zr1006   2.446       .  S
O992       C1015   1.295       .  A
O993      Zr2830   2.435       .  S
O993       C1016   1.292       .  A
O994      Zr1004   2.439       .  S
O994       C1015   1.293       .  A
O995      Zr1005   2.444       .  S
O995       C1016   1.294       .  A
O996      Zr1002   2.439       .  S
O996       C1011   1.293       .  A
O997      Zr1003   2.442   1_455  S
O997       C1014   1.294       .  A
O998      Zr2827   2.435       .  S
O998       C1013   1.292       .  A
O999      Zr2826   2.456       .  S
O999       C1012   1.296       .  A
O1000     Zr1006   2.427       .  S
O1000      C1009   1.291       .  A
O1001     Zr1006   2.437       .  S
O1001      C1010   1.292       .  A
Zr1002     O2823   2.439   1_455  S
Zr1002     O2800   2.338   1_455  S
Zr1002     O1008   2.334       .  S
Zr1002     O2844   2.339   1_455  S
Zr1003     O2822   2.450       .  S
Zr1003     O2809   2.344       .  S
Zr1003     O2831   2.335       .  S
Zr1003     O1018   2.341   1_655  S
Zr1004     O1008   2.336       .  S
Zr1004     O1018   2.342       .  S
Zr1005     O1007   2.336       .  S
Zr1005     O1020   2.337       .  S
Zr1006     O2817   2.457   1_455  S
Zr1006     O2831   2.338   1_455  S
Zr1006     O1008   2.339       .  S
Zr1006     O2844   2.341   1_455  S
Zr1006     O1018   2.340       .  S
O1007     Zr2827   2.334       .  S
O1007     Zr2830   2.334       .  S
C1009      C1343   1.478       .  S
C1010      C1353   1.472       .  S
C1011      C1230   1.487       .  S
C1012      C1240   1.490       .  S
C1013      C1210   1.485       .  S
C1014      C1220   1.489       .  S
C1015      C1200   1.487       .  S
C1016      C1180   1.486       .  S
H1017      O1018   0.965       .  S
H1019      O1020   0.966       .  S
O1020     Zr2826   2.341       .  S
O1020     Zr2830   2.345       .  S
O1021     Zr1057   2.433       .  S
O1021      C1032   1.291       .  A
O1022     Zr1056   2.442   1_545  S
O1022      C1033   1.293       .  A
O1023     Zr1029   2.441   1_565  S
O1023      C1034   1.294       .  A
O1024      C1035   1.291       .  A
O1025     Zr1059   2.452       .  S
O1025      C1035   1.294       .  A
O1026     Zr1058   2.433       .  S
O1026      C1034   1.292       .  A
O1027     Zr1029   2.437       .  S
O1027      C1033   1.293       .  A
O1028     Zr1029   2.437       .  S
O1028      C1032   1.293       .  A
Zr1029     O1031   2.338   1_545  S
Zr1029     O1037   2.342   1_545  S
O1030     Zr1059   2.334       .  S
O1031     Zr1057   2.336   1_565  S
O1031     Zr1058   2.342       .  S
C1034      C1140   1.483       .  S
C1035      C1130   1.474       .  S
H1036      O1037   0.966       .  S
O1037     Zr1056   2.340       .  S
O1037     Zr1058   2.344       .  S
H1038      O1039   0.966       .  S
O1039     Zr1059   2.343       .  S
O1040     Zr1056   2.437       .  S
O1040      C1063   1.293       .  A
O1041     Zr1057   2.425       .  S
O1041      C1064   1.290       .  A
O1042     Zr1058   2.450       .  S
O1042      C1065   1.295       .  A
O1043     Zr1059   2.436       .  S
O1043      C1066   1.292       .  A
O1044     Zr1059   2.436       .  S
O1044      C1067   1.292       .  A
O1045     Zr1058   2.450       .  S
O1045      C1068   1.295       .  A
O1046     Zr1060   2.441   1_565  S
O1046      C1069   1.293       .  A
O1047      C1070   1.293       .  A
O1048     Zr1058   2.442       .  S
O1048      C1069   1.293       .  A
O1049     Zr1059   2.444       .  S
O1049      C1070   1.294       .  A
O1050     Zr1056   2.433       .  S
O1050      C1065   1.292       .  A
O1051     Zr1057   2.436   1_565  S
O1051      C1068   1.292       .  A
O1052      C1067   1.294       .  A
O1053      C1066   1.293       .  A
O1054     Zr1060   2.447   1_565  S
O1054      C1063   1.295       .  A
O1055     Zr1060   2.441       .  S
O1055      C1064   1.293       .  A
Zr1056     O1062   2.342       .  S
Zr1057     O1072   2.338   1_545  S
Zr1058     O1062   2.341       .  S
Zr1058     O1072   2.338       .  S
Zr1059     O1061   2.345       .  S
Zr1059     O1074   2.341       .  S
Zr1060     O1062   2.341   1_545  S
Zr1060     O1072   2.339   1_545  S
C1065      C1203   1.486       .  S
C1066      C1193   1.487       .  S
C1067      C1173   1.485       .  S
C1068      C1183   1.488       .  S
C1069      C1150   1.472       .  S
C1070      C1160   1.478       .  S
H1071      O1072   0.965       .  S
H1073      O1074   0.965       .  S
O1075     Zr1111   2.447       .  S
O1075      C1086   1.294       .  A
O1076     Zr1110   2.448       .  S
O1076      C1087   1.295       .  A
O1077     Zr1539   2.444   1_554  S
O1077      C1088   1.294       .  A
O1078     Zr1083   2.440       .  S
O1078      C1089   1.293       .  A
O1079     Zr1113   2.439       .  S
O1079      C1089   1.293       .  A
O1080     Zr1112   2.440       .  S
O1080      C1088   1.293       .  A
O1081     Zr1083   2.422       .  S
O1081      C1087   1.290       .  A
O1082     Zr1083   2.436       .  S
O1082      C1086   1.292       .  A
Zr1083     O1533   2.436       .  S
Zr1083     O1084   2.339       .  S
Zr1083     O1541   2.335       .  S
Zr1083     O1093   2.338       .  S
Zr1083     O1547   2.346       .  S
O1084     Zr1110   2.341       .  S
O1084     Zr1113   2.339       .  S
O1085     Zr1539   2.341   1_554  S
O1085     Zr1567   2.335   1_554  S
O1085     Zr1112   2.335       .  S
C1086      C1739   1.481       .  S
C1087      C1729   1.482       .  S
C1088      C1223   1.488       .  S
C1089      C1233   1.486       .  S
H1090      O1091   0.966       .  S
O1091     Zr1539   2.342   1_554  S
O1091     Zr1566   2.340   1_554  S
O1091     Zr1112   2.348       .  S
H1092      O1093   0.965       .  S
O1093     Zr1111   2.341       .  S
O1093     Zr1113   2.343       .  S
O1094     Zr1110   2.449       .  S
O1094      C1117   1.295       .  A
O1095     Zr1111   2.447       .  S
O1095      C1118   1.295       .  A
O1096     Zr1112   2.432       .  S
O1096      C1119   1.292       .  A
O1097     Zr1113   2.441       .  S
O1097      C1120   1.293       .  A
O1098     Zr1113   2.442       .  S
O1098      C1121   1.293       .  A
O1099     Zr1112   2.447       .  S
O1099      C1122   1.293       .  A
O1100     Zr1570   2.441       .  S
O1100      C1123   1.294       .  A
O1101     Zr1114   2.435       .  S
O1101      C1124   1.292       .  A
O1102     Zr1112   2.446       .  S
O1102      C1123   1.294       .  A
O1103     Zr1113   2.446       .  S
O1103      C1124   1.295       .  A
O1104     Zr1566   2.440   1_554  S
O1104      C1119   1.293       .  A
O1105     Zr1567   2.437   1_554  S
O1105      C1122   1.292       .  A
O1106     Zr1111   2.440       .  S
O1106      C1121   1.293       .  A
O1107     Zr1110   2.439       .  S
O1107      C1120   1.292       .  A
O1108     Zr1114   2.427       .  S
O1108      C1117   1.291       .  A
O1109     Zr1114   2.429       .  S
O1109      C1118   1.291       .  A
Zr1110     O1560   2.439       .  S
Zr1110     O1547   2.344       .  S
Zr1110     O1572   2.337       .  S
Zr1110     O1128   2.341       .  S
Zr1111     O1561   2.434       .  S
Zr1111     O1541   2.341       .  S
Zr1111     O1115   2.335       .  S
Zr1111     O1582   2.344       .  S
Zr1112     O1116   2.340       .  S
Zr1112     O1126   2.340       .  S
Zr1113     O1115   2.339       .  S
Zr1113     O1128   2.342       .  S
Zr1114     O1556   2.433       .  S
Zr1114     O1115   2.336       .  S
Zr1114     O1572   2.336       .  S
Zr1114     O1128   2.339       .  S
Zr1114     O1582   2.342       .  S
O1116     Zr1566   2.336   1_554  S
O1116     Zr1570   2.335       .  S
C1117      C1709   1.485       .  S
C1118      C1719   1.485       .  S
C1119      C1143   1.482       .  S
C1120      C1153   1.472       .  S
C1121      C1163   1.479       .  S
C1122      C1133   1.475       .  S
C1123      C1213   1.487       .  S
C1124      C1243   1.488       .  S
H1125      O1126   0.966       .  S
O1126     Zr1567   2.339   1_554  S
O1126     Zr1570   2.345       .  S
H1127      O1128   0.965       .  S
C1129      C1130   1.404       .  A
C1129      C1134   1.400       .  A
C1129      H1135   1.083       .  S
C1130      C1131   1.404       .  A
C1131      C1132   1.399       .  A
C1131      H1136   1.084       .  S
C1132      C1133   1.404       .  A
C1132      H1137   1.083       .  S
C1133      C1134   1.404       .  A
C1134      H1138   1.083       .  S
C1139      C1140   1.407       .  A
C1139      C1144   1.397       .  A
C1139      H1145   1.083       .  S
C1140      C1141   1.406       .  A
C1141      C1142   1.397       .  A
C1141      H1146   1.083       .  S
C1142      C1143   1.406       .  A
C1142      H1147   1.083       .  S
C1143      C1144   1.407       .  A
C1144      H1148   1.083       .  S
C1149      C1150   1.404       .  A
C1149      C1154   1.400       .  A
C1149      H1155   1.083       .  S
C1150      C1151   1.403       .  A
C1151      C1152   1.398       .  A
C1151      H1156   1.083       .  S
C1152      C1153   1.403       .  A
C1152      H1157   1.083       .  S
C1153      C1154   1.404       .  A
C1154      H1158   1.083       .  S
C1159      C1160   1.405       .  A
C1159      C1164   1.399       .  A
C1159      H1165   1.083       .  S
C1160      C1161   1.405       .  A
C1161      C1162   1.399       .  A
C1161      H1166   1.083       .  S
C1162      C1163   1.405       .  A
C1162      H1167   1.083       .  S
C1163      C1164   1.405       .  A
C1164      H1168   1.083       .  S
C1169      C1170   1.409       .  A
C1169      C1174   1.400       .  A
C1169      H1175   1.083       .  S
C1170      C1171   1.404       .  A
C1171      C1172   1.395       .  A
C1171      H1176   1.083       .  S
C1172      C1173   1.406       .  A
C1172      H1177   1.083       .  S
C1173      C1174   1.407       .  A
C1174      H1178   1.083       .  S
C1179      C1180   1.406       .  A
C1179      C1184   1.396       .  A
C1179      H1185   1.083       .  S
C1180      C1181   1.408       .  A
C1181      C1182   1.402       .  A
C1181      H1186   1.083       .  S
C1182      C1183   1.409       .  A
C1182      H1187   1.083       .  S
C1183      C1184   1.405       .  A
C1184      H1188   1.083       .  S
C1189      C1190   1.406       .  A
C1189      C1194   1.397       .  A
C1189      H1195   1.083       .  S
C1190      C1191   1.407       .  A
C1191      C1192   1.400       .  A
C1191      H1196   1.083       .  S
C1192      C1193   1.407       .  A
C1192      H1197   1.083       .  S
C1193      C1194   1.407       .  A
C1194      H1198   1.083       .  S
C1199      C1200   1.406       .  A
C1199      C1204   1.399       .  A
C1199      H1205   1.083       .  S
C1200      C1201   1.408       .  A
C1201      C1202   1.399       .  A
C1201      H1206   1.083       .  S
C1202      C1203   1.405       .  A
C1202      H1207   1.083       .  S
C1203      C1204   1.408       .  A
C1204      H1208   1.083       .  S
C1209      C1210   1.407       .  A
C1209      C1214   1.401       .  A
C1209      H1215   1.083       .  S
C1210      C1211   1.406       .  A
C1211      C1212   1.396       .  A
C1211      H1216   1.083       .  S
C1212      C1213   1.406       .  A
C1212      H1217   1.083       .  S
C1213      C1214   1.408       .  A
C1214      H1218   1.083       .  S
C1219      C1220   1.407       .  A
C1219      C1224   1.397       .  A
C1219      H1225   1.083       .  S
C1220      C1221   1.408       .  A
C1221      C1222   1.401       .  A
C1221      H1226   1.083       .  S
C1222      C1223   1.408       .  A
C1222      H1227   1.083       .  S
C1223      C1224   1.407       .  A
C1224      H1228   1.083       .  S
C1229      C1230   1.407       .  A
C1229      C1234   1.399       .  A
C1229      H1235   1.083       .  S
C1230      C1231   1.407       .  A
C1231      C1232   1.398       .  A
C1231      H1236   1.083       .  S
C1232      C1233   1.406       .  A
C1232      H1237   1.083       .  S
C1233      C1234   1.407       .  A
C1234      H1238   1.083       .  S
C1239      C1240   1.406       .  A
C1239      C1244   1.402       .  A
C1239      H1245   1.083       .  S
C1240      C1241   1.409       .  A
C1241      C1242   1.397       .  A
C1241      H1246   1.083       .  S
C1242      C1243   1.405       .  A
C1242      H1247   1.083       .  S
C1243      C1244   1.409       .  A
C1244      H1248   1.083       .  S
C1249      C1250   1.406       .  A
C1249      C1254   1.395       .  A
C1249      H1255   1.083       .  S
C1250      C1251   1.407       .  A
C1251      C1252   1.399       .  A
C1251      H1256   1.083       .  S
C1252      C1253   1.408       .  A
C1252      H1257   1.083       .  S
C1253      C1573   1.485       .  S
C1253      C1254   1.406       .  A
C1254      H1258   1.083       .  S
C1259      C1260   1.407       .  A
C1259      C1264   1.398       .  A
C1259      H1265   1.083       .  S
C1260      C1261   1.404   1_556  A
C1261      C1262   1.392       .  A
C1261      H1266   1.083       .  S
C1262      C1263   1.405       .  A
C1262      H1267   1.083       .  S
C1263      C1574   1.480   1_554  S
C1263      C1264   1.407   1_554  A
C1264      H1268   1.083       .  S
C1269      C1270   1.407       .  A
C1269      C1274   1.401       .  A
C1269      H1275   1.083   1_556  S
C1270      C1271   1.408       .  A
C1271      C1272   1.398       .  A
C1271      H1276   1.083       .  S
C1272      C1273   1.405       .  A
C1272      H1277   1.083       .  S
C1273      C1543   1.488       .  S
C1273      C1274   1.409       .  A
C1274      H1278   1.083   1_556  S
C1279      C1280   1.408       .  A
C1279      C1284   1.399       .  A
C1279      H1285   1.083       .  S
C1280      C1281   1.405       .  A
C1281      C1282   1.396       .  A
C1281      H1286   1.083       .  S
C1282      C1283   1.407       .  A
C1282      H1287   1.083       .  S
C1283      C1542   1.485       .  S
C1283      C1284   1.406       .  A
C1284      H1288   1.083       .  S
C1289      C1290   1.406       .  A
C1289      C1294   1.396       .  A
C1289      H1295   1.083       .  S
C1290      C1291   1.406       .  A
C1291      C1292   1.398       .  A
C1291      H1296   1.083       .  S
C1292      C1293   1.407       .  A
C1292      H1297   1.083       .  S
C1293      C1294   1.406       .  A
C1294      H1298   1.083       .  S
C1299      C1300   1.406       .  A
C1299      C1304   1.397       .  A
C1299      H1305   1.083       .  S
C1300      C1301   1.407       .  A
C1301      C1302   1.401       .  A
C1301      H1306   1.083       .  S
C1302      C1303   1.409       .  A
C1302      H1307   1.083       .  S
C1303      C1304   1.405       .  A
C1304      H1308   1.083       .  S
C1309      C1310   1.407       .  A
C1309      C1314   1.395       .  A
C1309      H1315   1.083       .  S
C1310      C1311   1.407       .  A
C1311      C1312   1.399       .  A
C1311      H1316   1.083       .  S
C1312      C1313   1.407       .  A
C1312      H1317   1.083       .  S
C1313      C1314   1.405       .  A
C1314      H1318   1.083       .  S
C1319      C1320   1.405       .  A
C1319      C1324   1.398       .  A
C1319      H1325   1.083       .  S
C1320      C1321   1.405       .  A
C1321      C1322   1.398       .  A
C1321      H1326   1.083       .  S
C1322      C1323   1.405       .  A
C1322      H1327   1.083       .  S
C1323      C1324   1.405       .  A
C1324      H1328   1.083       .  S
C1329      C1330   1.405       .  A
C1329      C1334   1.394       .  A
C1329      H1335   1.083   1_655  S
C1330      C3155   1.406       .  A
C1331      C3154   1.406       .  A
C1331      C1332   1.397       .  A
C1331      H1336   1.083       .  S
C1332      C3157   1.405       .  A
C1332      H1337   1.083       .  S
C1333      C3156   1.405       .  A
C1333      C1334   1.406       .  A
C1334      H1338   1.083       .  S
C1339      C1340   1.404       .  A
C1339      C1344   1.394       .  A
C1339      H1345   1.083       .  S
C1340      C3165   1.408       .  A
C1341      C3164   1.404       .  A
C1341      C1342   1.394       .  A
C1341      H1346   1.083       .  S
C1342      C3167   1.407       .  A
C1342      H1347   1.083       .  S
C1343      C3166   1.405       .  A
C1343      C1344   1.406       .  A
C1344      H1348   1.083       .  S
C1349      C1350   1.404       .  A
C1349      C1354   1.397       .  A
C1349      H1355   1.083       .  S
C1350      C3175   1.404   1_455  A
C1351      C3174   1.406       .  A
C1351      C1352   1.396       .  A
C1351      H1356   1.083       .  S
C1352      C3177   1.406       .  A
C1352      H1357   1.083       .  S
C1353      C3176   1.404   1_455  A
C1353      C1354   1.404       .  A
C1354      H1358   1.083       .  S
C1359      C1360   1.405       .  A
C1359      C1364   1.393       .  A
C1359      H1365   1.083       .  S
C1360      C3185   1.404   1_455  A
C1361      C3184   1.407       .  A
C1361      C1362   1.397       .  A
C1361      H1366   1.083       .  S
C1362      C3187   1.408       .  A
C1362      H1367   1.083       .  S
C1363      C3186   1.405   1_455  A
C1363      C1364   1.404       .  A
C1364      H1368   1.083       .  S
O1369     Zr1405   2.426   1_455  S
O1369      C1380   1.291       .  A
O1370     Zr1404   2.425       .  S
O1370      C1381   1.290       .  A
O1371     Zr1377   2.446       .  S
O1371      C1382   1.294       .  A
O1372     Zr3201   2.434       .  S
O1372      C1383   1.292       .  A
O1373     Zr1407   2.444       .  S
O1373      C1383   1.294       .  A
O1374     Zr1406   2.438       .  S
O1374      C1382   1.292       .  A
O1375      C1381   1.293       .  A
O1376     Zr1377   2.429       .  S
O1376      C1380   1.291       .  A
Zr1377     O3196   2.447   1_455  S
Zr1377     O2746   2.338   1_455  S
Zr1377     O1379   2.336       .  S
Zr1377     O3211   2.342   1_455  S
O1378     Zr2745   2.336       .  S
O1378     Zr3228   2.337       .  S
O1379     Zr1405   2.338   1_455  S
O1379     Zr1406   2.338       .  S
C1380      C1816   1.474       .  S
C1381      C1786   1.480       .  S
C1382      C1736   1.481       .  S
C1383      C1716   1.485       .  S
H1384      O1385   0.965       .  S
O1385     Zr1404   2.336   1_455  S
H1386      O1387   0.965       .  S
O1387     Zr3201   2.339       .  S
O1387     Zr3229   2.340       .  S
O1387     Zr1407   2.337       .  S
O1388      C1411   1.291       .  A
O1389      C1412   1.292   1_655  A
O1390      C1413   1.293       .  A
O1391      C1414   1.293       .  A
O1392     Zr1407   2.443       .  S
O1392      C1415   1.294       .  A
O1393     Zr1406   2.436       .  S
O1393      C1416   1.292       .  A
O1394     Zr1408   2.437   1_455  S
O1394      C1417   1.293       .  A
O1395     Zr3232   2.448       .  S
O1395      C1418   1.295       .  A
O1396      C1417   1.294       .  A
O1397      C1418   1.291       .  A
O1398     Zr1404   2.448   1_455  S
O1398      C1413   1.294       .  A
O1399     Zr1405   2.435   1_455  S
O1399      C1416   1.293       .  A
O1400     Zr3229   2.431       .  S
O1400      C1415   1.291       .  A
O1401     Zr3228   2.432       .  S
O1401      C1414   1.292       .  A
O1402      C1411   1.292       .  A
O1403     Zr1408   2.441   1_455  S
O1403      C1412   1.293       .  A
Zr1404     O3225   2.449       .  S
Zr1404     O3202   2.334       .  S
Zr1404     O2334   2.340       .  S
Zr1405     O3224   2.434       .  S
Zr1405     O3211   2.342       .  S
Zr1405     O2321   2.333       .  S
Zr1408     O3219   2.441       .  S
Zr1408     O3233   2.342       .  S
Zr1408     O2790   2.343       .  S
Zr1408     O1420   2.340   1_655  S
O1409     Zr2317   2.337       .  S
O1409     Zr3232   2.336       .  S
C1411      C1796   1.477       .  S
C1412      C1806   1.476       .  S
C1413      C1756   1.486       .  S
C1414      C1746   1.483       .  S
C1415      C1776   1.482       .  S
C1416      C1766   1.482       .  S
C1417      C1726   1.484       .  S
C1418      C1706   1.486       .  S
H1419      O1420   0.965       .  S
H1421      O1422   0.966       .  S
O1422     Zr2316   2.347   1_565  S
O1422     Zr2776   2.338   1_556  S
O1423     Zr1459   2.441       .  S
O1423      C1434   1.294       .  A
O1424     Zr1458   2.432       .  S
O1424      C1435   1.292       .  A
O1425     Zr1431   2.455   1_455  S
O1425      C1436   1.296       .  A
O1426     Zr3255   2.444       .  S
O1426      C1437   1.294       .  A
O1427     Zr1461   2.444       .  S
O1427      C1437   1.294       .  A
O1428     Zr1460   2.435       .  S
O1428      C1436   1.292       .  A
O1429     Zr1431   2.436       .  S
O1429      C1435   1.293       .  A
O1430     Zr1431   2.427       .  S
O1430      C1434   1.291       .  A
Zr1431     O3250   2.446       .  S
Zr1431     O3256   2.336       .  S
Zr1431     O1433   2.340   1_655  S
Zr1431     O3265   2.345       .  S
Zr1431     O1439   2.342   1_655  S
O1432     Zr3255   2.332       .  S
O1432     Zr3282   2.337       .  S
O1432     Zr1461   2.333       .  S
O1433     Zr1459   2.338   1_455  S
O1433     Zr1460   2.336       .  S
C1434      C1819   1.477       .  S
C1435      C1789   1.481       .  S
C1436      C1646   1.490       .  S
C1437      C1626   1.490       .  S
H1438      O1439   0.966       .  S
O1439     Zr1458   2.340   1_455  S
O1439     Zr1460   2.344       .  S
H1440      O1441   0.965       .  S
O1441     Zr3255   2.334       .  S
O1441     Zr3283   2.340       .  S
O1441     Zr1461   2.335       .  S
O1442     Zr1458   2.431   1_455  S
O1442      C1465   1.292       .  A
O1443     Zr1459   2.446       .  S
O1443      C1466   1.294       .  A
O1444     Zr1460   2.436       .  S
O1444      C1467   1.292       .  A
O1445     Zr1461   2.434       .  S
O1445      C1468   1.292       .  A
O1446     Zr1461   2.439       .  S
O1446      C1469   1.293       .  A
O1447     Zr1460   2.432       .  S
O1447      C1470   1.292       .  A
O1448     Zr1462   2.446   1_455  S
O1448      C1471   1.294       .  A
O1449     Zr3286   2.451       .  S
O1449      C1472   1.295       .  A
O1450     Zr1460   2.444       .  S
O1450      C1471   1.294       .  A
O1451     Zr1461   2.430       .  S
O1451      C1472   1.291       .  A
O1452     Zr1458   2.448   1_455  S
O1452      C1467   1.295       .  A
O1453     Zr1459   2.450   1_455  S
O1453      C1470   1.295       .  A
O1454     Zr3283   2.438       .  S
O1454      C1469   1.293       .  A
O1455     Zr3282   2.434       .  S
O1455      C1468   1.292       .  A
O1456     Zr1462   2.420   1_455  S
O1456      C1465   1.290       .  A
O1457     Zr1462   2.426       .  S
O1457      C1466   1.290       .  A
Zr1458     O3279   2.437       .  S
Zr1458     O3256   2.338       .  S
Zr1458     O1464   2.334   1_655  S
Zr1458     O3300   2.341       .  S
Zr1459     O3278   2.439       .  S
Zr1459     O3265   2.347       .  S
Zr1459     O3287   2.341       .  S
Zr1459     O1474   2.337   1_655  S
Zr1460     O1464   2.334       .  S
Zr1460     O1474   2.337       .  S
Zr1461     O1463   2.336       .  S
Zr1461     O1476   2.339       .  S
Zr1462     O3273   2.444       .  S
Zr1462     O3287   2.338       .  S
Zr1462     O1464   2.338   1_655  S
Zr1462     O3300   2.335       .  S
Zr1462     O1474   2.337   1_655  S
O1463     Zr3283   2.335       .  S
O1463     Zr3286   2.335       .  S
C1465      C1799   1.475       .  S
C1466      C1809   1.474       .  S
C1467      C1686   1.486       .  S
C1468      C1696   1.482       .  S
C1469      C1666   1.486       .  S
C1470      C1676   1.488       .  S
C1471      C1656   1.491       .  S
C1472      C1636   1.488       .  S
H1473      O1474   0.965       .  S
H1475      O1476   0.965       .  S
O1476     Zr3282   2.342       .  S
O1476     Zr3286   2.338       .  S
O1477     Zr1513   2.438       .  S
O1477      C1488   1.293       .  A
O1478     Zr1512   2.427       .  S
O1478      C1489   1.291       .  A
O1479     Zr1485   2.431   1_565  S
O1479      C1490   1.292       .  A
O1480      C1491   1.292       .  A
O1481     Zr1515   2.428       .  S
O1481      C1491   1.291       .  A
O1482     Zr1514   2.418       .  S
O1482      C1490   1.290       .  A
O1483     Zr1485   2.457   1_565  S
O1483      C1489   1.297       .  A
O1484     Zr1485   2.455       .  S
O1484      C1488   1.296       .  A
Zr1485     O1487   2.336   1_545  S
Zr1485     O1493   2.345   1_545  S
O1486     Zr1515   2.337       .  S
O1487     Zr1513   2.333   1_565  S
O1487     Zr1514   2.339       .  S
C1490      C1596   1.475       .  S
C1491      C1586   1.478       .  S
H1492      O1493   0.965       .  S
O1493     Zr1512   2.345       .  S
O1493     Zr1514   2.341       .  S
H1494      O1495   0.966       .  S
O1495     Zr1515   2.342       .  S
O1496     Zr1512   2.434       .  S
O1496      C1519   1.292       .  A
O1497     Zr1513   2.431       .  S
O1497      C1520   1.292       .  A
O1498     Zr1514   2.460       .  S
O1498      C1521   1.297       .  A
O1499     Zr1515   2.446       .  S
O1499      C1522   1.294       .  A
O1500     Zr1515   2.446       .  S
O1500      C1523   1.294       .  A
O1501     Zr1514   2.444       .  S
O1501      C1524   1.294       .  A
O1502     Zr1516   2.440   1_565  S
O1502      C1525   1.293       .  A
O1503      C1526   1.290       .  A
O1504     Zr1514   2.427       .  S
O1504      C1525   1.290       .  A
O1505     Zr1515   2.431       .  S
O1505      C1526   1.291       .  A
O1506     Zr1512   2.440       .  S
O1506      C1521   1.293       .  A
O1507     Zr1513   2.446   1_565  S
O1507      C1524   1.294       .  A
O1508      C1523   1.295       .  A
O1509      C1522   1.293       .  A
O1510     Zr1516   2.447   1_565  S
O1510      C1519   1.295       .  A
O1511     Zr1516   2.444       .  S
O1511      C1520   1.294       .  A
Zr1512     O1518   2.342       .  S
Zr1513     O1528   2.342   1_545  S
Zr1514     O1518   2.337       .  S
Zr1514     O1528   2.341       .  S
Zr1515     O1517   2.338       .  S
Zr1515     O1530   2.337       .  S
Zr1516     O1518   2.337   1_545  S
Zr1516     O1528   2.339   1_545  S
C1521      C1659   1.494       .  S
C1522      C1649   1.489       .  S
C1523      C1629   1.492       .  S
C1524      C1639   1.490       .  S
C1525      C1606   1.478       .  S
C1526      C1616   1.468       .  S
H1527      O1528   0.966       .  S
H1529      O1530   0.965       .  S
O1531     Zr1567   2.445   1_554  S
O1531      C1542   1.294   1_554  A
O1532     Zr1566   2.449       .  S
O1532      C1543   1.295       .  A
O1533      C1544   1.292       .  A
O1534     Zr1539   2.446       .  S
O1534      C1545   1.294       .  A
O1535     Zr1569   2.455       .  S
O1535      C1545   1.295       .  A
O1536     Zr1568   2.454       .  S
O1536      C1544   1.296       .  A
O1537     Zr1539   2.435       .  S
O1537      C1543   1.292       .  A
O1538     Zr1539   2.433       .  S
O1538      C1542   1.292       .  A
Zr1539     O1540   2.336       .  S
Zr1539     O1549   2.340       .  S
O1540     Zr1566   2.339       .  S
O1540     Zr1569   2.340       .  S
O1541     Zr1568   2.340       .  S
C1544      C1679   1.489       .  S
C1545      C1689   1.490       .  S
H1546      O1547   0.966       .  S
O1547     Zr1568   2.343       .  S
H1548      O1549   0.966       .  S
O1549     Zr1567   2.344       .  S
O1549     Zr1569   2.339       .  S
O1550     Zr1566   2.441   1_554  S
O1550      C1573   1.293       .  A
O1551     Zr1567   2.441       .  S
O1551      C1574   1.294       .  A
O1552     Zr1568   2.432       .  S
O1552      C1575   1.292       .  A
O1553     Zr1569   2.427       .  S
O1553      C1576   1.291       .  A
O1554     Zr1569   2.435       .  S
O1554      C1577   1.292       .  A
O1555     Zr1568   2.431       .  S
O1555      C1578   1.292       .  A
O1556      C1579   1.292       .  A
O1557     Zr1570   2.445   1_556  S
O1557      C1580   1.294       .  A
O1558     Zr1568   2.455       .  S
O1558      C1579   1.296       .  A
O1559     Zr1569   2.435       .  S
O1559      C1580   1.292       .  A
O1560      C1575   1.293       .  A
O1561      C1578   1.293       .  A
O1562     Zr1567   2.431       .  S
O1562      C1577   1.291       .  A
O1563     Zr1566   2.433       .  S
O1563      C1576   1.292       .  A
O1564     Zr1570   2.438       .  S
O1564      C1573   1.293       .  A
O1565     Zr1570   2.426       .  S
O1565      C1574   1.290   1_554  A
Zr1566     O1584   2.340       .  S
Zr1567     O1571   2.342       .  S
Zr1568     O1572   2.339       .  S
Zr1568     O1582   2.348       .  S
Zr1569     O1571   2.341       .  S
Zr1569     O1584   2.347       .  S
Zr1570     O1571   2.345   1_554  S
Zr1570     O1584   2.335   1_554  S
C1575      C1599   1.480       .  S
C1576      C1609   1.476       .  S
C1577      C1619   1.470       .  S
C1578      C1589   1.479       .  S
C1579      C1669   1.489       .  S
C1580      C1699   1.484       .  S
H1581      O1582   0.966       .  S
H1583      O1584   0.965       .  S
C1585      C1586   1.406       .  A
C1585      C1590   1.395       .  A
C1585      H1591   1.083       .  S
C1586      C1587   1.405       .  A
C1587      C1588   1.394       .  A
C1587      H1592   1.083       .  S
C1588      C1589   1.405       .  A
C1588      H1593   1.083       .  S
C1589      C1590   1.406       .  A
C1590      H1594   1.083       .  S
C1595      C1596   1.404       .  A
C1595      C1600   1.395       .  A
C1595      H1601   1.083       .  S
C1596      C1597   1.406       .  A
C1597      C1598   1.394       .  A
C1597      H1602   1.083       .  S
C1598      C1599   1.405       .  A
C1598      H1603   1.083       .  S
C1599      C1600   1.406       .  A
C1600      H1604   1.083       .  S
C1605      C1606   1.404       .  A
C1605      C1610   1.393       .  A
C1605      H1611   1.083       .  S
C1606      C1607   1.407       .  A
C1607      C1608   1.396       .  A
C1607      H1612   1.083       .  S
C1608      C1609   1.405       .  A
C1608      H1613   1.083       .  S
C1609      C1610   1.405       .  A
C1610      H1614   1.083       .  S
C1615      C1616   1.404       .  A
C1615      C1620   1.396       .  A
C1615      H1621   1.083       .  S
C1616      C1617   1.403       .  A
C1617      C1618   1.394       .  A
C1617      H1622   1.083       .  S
C1618      C1619   1.403       .  A
C1618      H1623   1.083       .  S
C1619      C1620   1.405       .  A
C1620      H1624   1.083       .  S
C1625      C1626   1.408       .  A
C1625      C1630   1.403       .  A
C1625      H1631   1.083       .  S
C1626      C1627   1.407       .  A
C1627      C1628   1.399       .  A
C1627      H1632   1.083       .  S
C1628      C1629   1.407       .  A
C1628      H1633   1.083       .  S
C1629      C1630   1.409       .  A
C1630      H1634   1.083       .  S
C1635      C1636   1.409       .  A
C1635      C1640   1.399       .  A
C1635      H1641   1.083       .  S
C1636      C1637   1.405       .  A
C1637      C1638   1.400       .  A
C1637      H1642   1.083       .  S
C1638      C1639   1.408       .  A
C1638      H1643   1.083       .  S
C1639      C1640   1.407       .  A
C1640      H1644   1.083       .  S
C1645      C1646   1.409       .  A
C1645      C1650   1.399       .  A
C1645      H1651   1.083       .  S
C1646      C1647   1.406       .  A
C1647      C1648   1.400       .  A
C1647      H1652   1.083       .  S
C1648      C1649   1.408       .  A
C1648      H1653   1.083       .  S
C1649      C1650   1.406       .  A
C1650      H1654   1.083       .  S
C1655      C1656   1.407       .  A
C1655      C1660   1.401       .  A
C1655      H1661   1.083       .  S
C1656      C1657   1.409       .  A
C1657      C1658   1.402       .  A
C1657      H1662   1.083       .  S
C1658      C1659   1.407       .  A
C1658      H1663   1.083       .  S
C1659      C1660   1.409       .  A
C1660      H1664   1.083       .  S
C1665      C1666   1.407       .  A
C1665      C1670   1.399       .  A
C1665      H1671   1.083       .  S
C1666      C1667   1.406       .  A
C1667      C1668   1.399       .  A
C1667      H1672   1.083       .  S
C1668      C1669   1.409       .  A
C1668      H1673   1.083       .  S
C1669      C1670   1.406       .  A
C1670      H1674   1.083       .  S
C1675      C1676   1.409       .  A
C1675      C1680   1.397       .  A
C1675      H1681   1.083       .  S
C1676      C1677   1.406       .  A
C1677      C1678   1.401       .  A
C1677      H1682   1.083       .  S
C1678      C1679   1.410       .  A
C1678      H1683   1.083       .  S
C1679      C1680   1.405       .  A
C1680      H1684   1.083       .  S
C1685      C1686   1.408       .  A
C1685      C1690   1.403       .  A
C1685      H1691   1.083       .  S
C1686      C1687   1.405       .  A
C1687      C1688   1.399       .  A
C1687      H1692   1.083       .  S
C1688      C1689   1.408       .  A
C1688      H1693   1.083       .  S
C1689      C1690   1.407       .  A
C1690      H1694   1.083       .  S
C1695      C1696   1.406       .  A
C1695      C1700   1.398       .  A
C1695      H1701   1.083       .  S
C1696      C1697   1.406       .  A
C1697      C1698   1.396       .  A
C1697      H1702   1.083       .  S
C1698      C1699   1.406       .  A
C1698      H1703   1.083       .  S
C1699      C1700   1.406       .  A
C1700      H1704   1.083       .  S
C1705      C1706   1.405       .  A
C1705      C1710   1.397       .  A
C1705      H1711   1.083       .  S
C1706      C1707   1.409       .  A
C1707      C1708   1.398       .  A
C1707      H1712   1.083       .  S
C1708      C1709   1.405       .  A
C1708      H1713   1.083       .  S
C1709      C1710   1.408       .  A
C1710      H1714   1.083       .  S
C1715      C1716   1.408       .  A
C1715      C1720   1.400       .  A
C1715      H1721   1.083       .  S
C1716      C1717   1.405       .  A
C1717      C1718   1.395       .  A
C1717      H1722   1.083       .  S
C1718      C1719   1.405       .  A
C1718      H1723   1.083       .  S
C1719      C1720   1.409       .  A
C1720      H1724   1.083       .  S
C1725      C1726   1.407       .  A
C1725      C1730   1.399       .  A
C1725      H1731   1.083       .  S
C1726      C1727   1.406       .  A
C1727      C1728   1.394       .  A
C1727      H1732   1.083       .  S
C1728      C1729   1.403       .  A
C1728      H1733   1.083       .  S
C1729      C1730   1.409       .  A
C1730      H1734   1.083       .  S
C1735      C1736   1.406       .  A
C1735      C1740   1.400       .  A
C1735      H1741   1.083       .  S
C1736      C1737   1.405       .  A
C1737      C1738   1.398       .  A
C1737      H1742   1.083       .  S
C1738      C1739   1.406       .  A
C1738      H1743   1.083       .  S
C1739      C1740   1.405       .  A
C1740      H1744   1.083       .  S
C1745      C1746   1.406       .  A
C1745      C1750   1.396       .  A
C1745      H1751   1.083       .  S
C1746      C1747   1.407       .  A
C1747      C1748   1.397       .  A
C1747      H1752   1.083       .  S
C1748      C1749   1.404       .  A
C1748      H1753   1.083       .  S
C1749      C1750   1.409       .  A
C1750      H1754   1.083       .  S
C1755      C1756   1.407       .  A
C1755      C1760   1.395       .  A
C1755      H1761   1.083       .  S
C1756      C1757   1.407       .  A
C1757      C1758   1.401       .  A
C1757      H1762   1.083       .  S
C1758      C1759   1.408       .  A
C1758      H1763   1.083       .  S
C1759      C1760   1.405       .  A
C1760      H1764   1.083       .  S
C1765      C1766   1.405       .  A
C1765      C1770   1.396       .  A
C1765      H1771   1.083       .  S
C1766      C1767   1.407       .  A
C1767      C1768   1.397       .  A
C1767      H1772   1.083       .  S
C1768      C1769   1.404       .  A
C1768      H1773   1.083       .  S
C1769      C1770   1.409       .  A
C1770      H1774   1.083       .  S
C1775      C1776   1.405       .  A
C1775      C1780   1.394       .  A
C1775      H1781   1.083       .  S
C1776      C1777   1.408       .  A
C1777      C1778   1.399       .  A
C1777      H1782   1.083       .  S
C1778      C1779   1.407       .  A
C1778      H1783   1.083       .  S
C1779      C1780   1.405       .  A
C1780      H1784   1.083       .  S
C1785      C1786   1.405       .  A
C1785      C1790   1.396       .  A
C1785      H1791   1.083       .  S
C1786      C3611   1.407       .  A
C1787      C3610   1.404       .  A
C1787      C1788   1.394       .  A
C1787      H1792   1.083       .  S
C1788      C3613   1.407       .  A
C1788      H1793   1.083       .  S
C1789      C3612   1.405       .  A
C1789      C1790   1.407       .  A
C1790      H1794   1.083       .  S
C1795      C1796   1.405   1_455  A
C1795      C1800   1.393       .  A
C1795      H1801   1.083   1_455  S
C1796      C3621   1.406   1_655  A
C1797      C3620   1.405       .  A
C1797      C1798   1.394       .  A
C1797      H1802   1.083       .  S
C1798      C3623   1.405       .  A
C1798      H1803   1.083       .  S
C1799      C3622   1.406       .  A
C1799      C1800   1.405       .  A
C1800      H1804   1.083       .  S
C1805      C1806   1.405   1_655  A
C1805      C1810   1.397       .  A
C1805      H1811   1.083       .  S
C1806      C3631   1.405       .  A
C1807      C3630   1.406       .  A
C1807      C1808   1.395       .  A
C1807      H1812   1.083       .  S
C1808      C3633   1.404       .  A
C1808      H1813   1.083       .  S
C1809      C3632   1.404   1_655  A
C1809      C1810   1.405       .  A
C1810      H1814   1.083       .  S
C1815      C1816   1.405       .  A
C1815      C1820   1.394       .  A
C1815      H1821   1.083       .  S
C1816      C3641   1.405   1_455  A
C1817      C3640   1.406       .  A
C1817      C1818   1.394       .  A
C1817      H1822   1.083       .  S
C1818      C3643   1.405       .  A
C1818      H1823   1.083       .  S
C1819      C3642   1.406       .  A
C1819      C1820   1.405   1_655  A
C1820      H1824   1.083       .  S
O1825     Zr1861   2.432       .  S
O1825      C1836   1.292       .  A
O1826     Zr1860   2.429       .  S
O1826      C1837   1.291       .  A
O1827     Zr1833   2.430       .  S
O1827      C1838   1.291       .  A
O1828      C1839   1.294       .  A
O1829     Zr1863   2.447       .  S
O1829      C1839   1.295       .  A
O1830     Zr1862   2.446   1_545  S
O1830      C1838   1.294       .  A
O1831     Zr2289   2.435       .  S
O1831      C1837   1.293       .  A
O1832     Zr1833   2.422   1_554  S
O1832      C1836   1.289       .  A
Zr1833     O2287   2.418       .  S
Zr1833     O1835   2.336   1_556  S
Zr1833     O2297   2.341       .  S
O1834     Zr2319   2.335       .  S
O1835     Zr1861   2.336       .  S
O1835     Zr1862   2.337   1_544  S
C1836      C2272   1.469       .  S
C1837      C2242   1.478       .  S
C1838      C2192   1.483       .  S
C1839      C2172   1.491       .  S
H1840      O1841   0.966       .  S
O1841     Zr2289   2.343       .  S
O1841     Zr1860   2.344       .  S
O1841     Zr2318   2.338       .  S
H1842      O1843   0.965       .  S
O1843     Zr1863   2.340       .  S
O1844     Zr2772   2.439       .  S
O1844      C1867   1.293       .  A
O1845     Zr2773   2.440       .  S
O1845      C1868   1.293       .  A
O1846     Zr2318   2.443       .  S
O1846      C1869   1.294       .  A
O1847     Zr2319   2.435   1_565  S
O1847      C1870   1.292   1_565  A
O1848     Zr1863   2.428       .  S
O1848      C1871   1.291       .  A
O1849     Zr1862   2.428   1_554  S
O1849      C1872   1.291       .  A
O1850     Zr1864   2.439   1_556  S
O1850      C1873   1.293       .  A
O1851      C1874   1.293       .  A
O1852     Zr2774   2.431       .  S
O1852      C1873   1.292       .  A
O1853     Zr2775   2.432       .  S
O1853      C1874   1.291       .  A
O1854     Zr1860   2.437       .  S
O1854      C1869   1.292       .  A
O1855     Zr1861   2.444   1_565  S
O1855      C1872   1.295       .  A
O1856      C1871   1.292       .  A
O1857      C1870   1.293       .  A
O1858     Zr2320   2.429       .  S
O1858      C1867   1.291       .  A
O1859     Zr1864   2.427       .  S
O1859      C1868   1.291       .  A
Zr1860     O2756   2.437   1_545  S
Zr1860     O2778   2.335   1_545  S
Zr1861     O2757   2.435   1_545  S
Zr1861     O2788   2.338   1_545  S
Zr1862     O2302   2.437       .  S
Zr1862     O2764   2.432       .  S
Zr1862     O2297   2.336   1_565  S
Zr1862     O3234   2.332       .  S
Zr1862     O2788   2.345   1_556  S
Zr1863     O2303   2.440   1_554  S
Zr1863     O2765   2.441   1_545  S
Zr1863     O2290   2.337   1_554  S
Zr1863     O2777   2.342   1_545  S
Zr1863     O3246   2.341   1_544  S
Zr1864     O2314   2.421   1_554  S
Zr1864     O2322   2.337   1_554  S
Zr1864     O1876   2.340       .  S
O1865     Zr2775   2.338       .  S
O1866     Zr2772   2.335       .  S
O1866     Zr3230   2.334       .  S
O1866     Zr2320   2.336       .  S
C1867      C2252   1.481       .  S
C1868      C2262   1.479       .  S
C1869      C2212   1.485       .  S
C1870      C2202   1.483       .  S
C1871      C2232   1.476       .  S
C1872      C2222   1.483       .  S
C1873      C2182   1.480       .  S
C1874      C2162   1.482       .  S
H1875      O1876   0.966       .  S
O1876     Zr2773   2.338       .  S
O1876     Zr2774   2.342   1_554  S
H1877      O1878   0.966       .  S
O1878     Zr3231   2.338       .  S
O1879     Zr1915   2.425       .  S
O1879      C1890   1.290       .  A
O1880     Zr1914   2.425       .  S
O1880      C1891   1.291       .  A
O1881     Zr1887   2.445       .  S
O1881      C1892   1.294       .  A
O1882      C1893   1.293       .  A
O1883     Zr1917   2.437       .  S
O1883      C1893   1.292       .  A
O1884     Zr1916   2.431       .  S
O1884      C1892   1.292       .  A
O1885     Zr1887   2.436       .  S
O1885      C1891   1.293       .  A
O1886     Zr1887   2.436       .  S
O1886      C1890   1.293       .  A
Zr1887     O1889   2.334       .  S
Zr1887     O1895   2.342       .  S
O1888     Zr1917   2.331       .  S
O1889     Zr1915   2.335       .  S
O1889     Zr1916   2.336       .  S
C1890      C2275   1.471       .  S
C1891      C2245   1.477       .  S
C1892      C2102   1.484       .  S
C1893      C2082   1.485       .  S
H1894      O1895   0.965       .  S
O1895     Zr1914   2.340       .  S
O1895     Zr1916   2.339       .  S
H1896      O1897   0.966       .  S
O1897     Zr1917   2.341       .  S
O1898     Zr1914   2.434       .  S
O1898      C1921   1.292       .  A
O1899     Zr1915   2.431       .  S
O1899      C1922   1.292       .  A
O1900     Zr1916   2.440       .  S
O1900      C1923   1.293       .  A
O1901     Zr1917   2.438       .  S
O1901      C1924   1.293       .  A
O1902     Zr1917   2.443       .  S
O1902      C1925   1.294       .  A
O1903     Zr1916   2.432       .  S
O1903      C1926   1.292       .  A
O1904     Zr1918   2.441       .  S
O1904      C1927   1.293       .  A
O1905      C1928   1.295       .  A
O1906     Zr1916   2.439       .  S
O1906      C1927   1.293       .  A
O1907     Zr1917   2.432       .  S
O1907      C1928   1.292       .  A
O1908     Zr1914   2.447       .  S
O1908      C1923   1.294       .  A
O1909     Zr1915   2.437       .  S
O1909      C1926   1.293       .  A
O1910      C1925   1.293       .  A
O1911      C1924   1.293       .  A
O1912     Zr1918   2.435       .  S
O1912      C1921   1.293       .  A
O1913     Zr1918   2.440       .  S
O1913      C1922   1.293       .  A
Zr1914     O1920   2.338       .  S
Zr1915     O1930   2.343       .  S
Zr1916     O1920   2.333       .  S
Zr1916     O1930   2.340       .  S
Zr1917     O1919   2.340       .  S
Zr1917     O1932   2.342       .  S
Zr1918     O1920   2.338       .  S
Zr1918     O1930   2.337       .  S
C1921      C2255   1.481       .  S
C1922      C2265   1.480       .  S
C1923      C2142   1.488       .  S
C1924      C2152   1.483       .  S
C1925      C2122   1.487       .  S
C1926      C2132   1.481       .  S
C1927      C2112   1.486       .  S
C1928      C2092   1.487       .  S
H1929      O1930   0.966       .  S
H1931      O1932   0.966       .  S
O1933     Zr1969   2.429       .  S
O1933      C1944   1.290       .  A
O1934     Zr1968   2.446       .  S
O1934      C1945   1.294       .  A
O1935     Zr1941   2.426       .  S
O1935      C1946   1.291       .  A
O1936     Zr2853   2.428       .  S
O1936      C1947   1.291       .  A
O1937     Zr1971   2.430       .  S
O1937      C1947   1.291       .  A
O1938     Zr1970   2.427       .  S
O1938      C1946   1.291       .  A
O1939     Zr1941   2.443       .  S
O1939      C1945   1.294       .  A
O1940     Zr1941   2.451       .  S
O1940      C1944   1.295       .  A
Zr1941     O2848   2.440       .  S
Zr1941     O2854   2.336       .  S
Zr1941     O1943   2.337       .  S
Zr1941     O2863   2.335       .  S
Zr1941     O1949   2.346       .  S
O1942     Zr2853   2.337       .  S
O1942     Zr2880   2.336       .  S
O1942     Zr1971   2.339       .  S
O1943     Zr1969   2.332       .  S
O1943     Zr1970   2.340       .  S
C1944      C3147   1.479       .  S
C1945      C3137   1.486       .  S
C1946      C2052   1.475       .  S
C1947      C2042   1.477       .  S
H1948      O1949   0.966       .  S
O1949     Zr1968   2.340       .  S
O1949     Zr1970   2.343       .  S
H1950      O1951   0.966       .  S
O1951     Zr2853   2.342       .  S
O1951     Zr2881   2.341       .  S
O1951     Zr1971   2.340       .  S
O1952     Zr1968   2.442       .  S
O1952      C1975   1.294       .  A
O1953     Zr1969   2.431       .  S
O1953      C1976   1.291       .  A
O1954     Zr1970   2.450       .  S
O1954      C1977   1.295       .  A
O1955     Zr1971   2.439       .  S
O1955      C1978   1.293       .  A
O1956     Zr1971   2.435       .  S
O1956      C1979   1.292       .  A
O1957     Zr1970   2.447       .  S
O1957      C1980   1.295       .  A
O1958     Zr1972   2.424       .  S
O1958      C1981   1.290       .  A
O1959     Zr2884   2.439       .  S
O1959      C1982   1.293       .  A
O1960     Zr1970   2.433       .  S
O1960      C1981   1.292       .  A
O1961     Zr1971   2.434       .  S
O1961      C1982   1.292       .  A
O1962     Zr1968   2.429       .  S
O1962      C1977   1.291       .  A
O1963     Zr1969   2.435       .  S
O1963      C1980   1.292       .  A
O1964     Zr2881   2.443       .  S
O1964      C1979   1.294       .  A
O1965     Zr2880   2.433       .  S
O1965      C1978   1.292       .  A
O1966     Zr1972   2.441       .  S
O1966      C1975   1.293       .  A
O1967     Zr1972   2.444       .  S
O1967      C1976   1.294       .  A
Zr1968     O2877   2.428       .  S
Zr1968     O2854   2.334       .  S
Zr1968     O1974   2.336       .  S
Zr1968     O2898   2.345       .  S
Zr1969     O2876   2.428       .  S
Zr1969     O2863   2.341       .  S
Zr1969     O2885   2.334       .  S
Zr1969     O1984   2.341       .  S
Zr1970     O1974   2.334       .  S
Zr1970     O1984   2.341       .  S
Zr1971     O1973   2.335       .  S
Zr1971     O1986   2.337       .  S
Zr1972     O2871   2.422       .  S
Zr1972     O2885   2.333       .  S
Zr1972     O1974   2.338       .  S
Zr1972     O2898   2.342       .  S
Zr1972     O1984   2.340       .  S
O1973     Zr2881   2.333       .  S
O1973     Zr2884   2.334       .  S
C1975      C3127   1.487       .  S
C1976      C3117   1.481       .  S
C1977      C2115   1.486       .  S
C1978      C2105   1.483       .  S
C1979      C2085   1.485       .  S
C1980      C2095   1.487       .  S
C1981      C2062   1.478       .  S
C1982      C2072   1.479       .  S
H1983      O1984   0.966       .  S
H1985      O1986   0.966       .  S
O1986     Zr2880   2.343       .  S
O1986     Zr2884   2.343       .  S
O1987     Zr2023   2.452       .  S
O1987      C1998   1.295       .  A
O1988     Zr2022   2.437       .  S
O1988      C1999   1.293       .  A
O1989     Zr2451   2.433   1_554  S
O1989      C2000   1.292       .  A
O1990     Zr1995   2.442       .  S
O1990      C2001   1.294       .  A
O1991     Zr2025   2.443       .  S
O1991      C2001   1.294       .  A
O1992     Zr2024   2.437       .  S
O1992      C2000   1.293       .  A
O1993     Zr1995   2.433       .  S
O1993      C1999   1.291       .  A
O1994     Zr1995   2.423       .  S
O1994      C1998   1.290       .  A
Zr1995     O2445   2.440       .  S
Zr1995     O1996   2.334       .  S
Zr1995     O2453   2.337       .  S
Zr1995     O2005   2.343       .  S
Zr1995     O2459   2.339       .  S
O1996     Zr2022   2.336       .  S
O1996     Zr2025   2.341       .  S
O1997     Zr2451   2.337   1_554  S
O1997     Zr2479   2.336       .  S
O1997     Zr2024   2.336       .  S
C1998      C2651   1.485       .  S
C1999      C2641   1.481       .  S
C2000      C2135   1.481       .  S
C2001      C2145   1.487       .  S
H2002      O2003   0.966       .  S
O2003     Zr2451   2.340   1_554  S
O2003     Zr2478   2.342   1_554  S
O2003     Zr2024   2.347       .  S
H2004      O2005   0.966       .  S
O2005     Zr2023   2.340       .  S
O2005     Zr2025   2.342       .  S
O2006     Zr2022   2.431       .  S
O2006      C2029   1.291       .  A
O2007     Zr2023   2.446       .  S
O2007      C2030   1.295       .  A
O2008     Zr2024   2.417       .  S
O2008      C2031   1.289       .  A
O2009     Zr2025   2.431       .  S
O2009      C2032   1.292       .  A
O2010     Zr2025   2.440       .  S
O2010      C2033   1.293       .  A
O2011     Zr2024   2.432       .  S
O2011      C2034   1.292       .  A
O2012     Zr2482   2.434       .  S
O2012      C2035   1.292       .  A
O2013     Zr2026   2.430       .  S
O2013      C2036   1.291       .  A
O2014     Zr2024   2.449       .  S
O2014      C2035   1.294       .  A
O2015     Zr2025   2.447       .  S
O2015      C2036   1.295       .  A
O2016     Zr2478   2.441   1_554  S
O2016      C2031   1.294       .  A
O2017     Zr2479   2.423       .  S
O2017      C2034   1.290       .  A
O2018     Zr2023   2.430       .  S
O2018      C2033   1.291       .  A
O2019     Zr2022   2.430       .  S
O2019      C2032   1.291       .  A
O2020     Zr2026   2.434       .  S
O2020      C2029   1.292       .  A
O2021     Zr2026   2.437       .  S
O2021      C2030   1.293       .  A
Zr2022     O2472   2.428       .  S
Zr2022     O2459   2.338       .  S
Zr2022     O2484   2.335       .  S
Zr2022     O2040   2.344       .  S
Zr2023     O2473   2.430       .  S
Zr2023     O2453   2.334       .  S
Zr2023     O2027   2.335       .  S
Zr2023     O2494   2.340       .  S
Zr2024     O2028   2.336       .  S
Zr2024     O2038   2.334       .  S
Zr2025     O2027   2.333       .  S
Zr2025     O2040   2.345       .  S
Zr2026     O2468   2.437       .  S
Zr2026     O2027   2.336       .  S
Zr2026     O2484   2.334       .  S
Zr2026     O2040   2.341       .  S
Zr2026     O2494   2.341       .  S
O2028     Zr2478   2.338   1_554  S
O2028     Zr2482   2.330       .  S
C2029      C2621   1.480       .  S
C2030      C2631   1.487       .  S
C2031      C2055   1.476       .  S
C2032      C2065   1.478       .  S
C2033      C2075   1.478       .  S
C2034      C2045   1.476       .  S
C2035      C2125   1.488       .  S
C2036      C2155   1.484       .  S
H2037      O2038   0.966       .  S
O2038     Zr2479   2.341       .  S
O2038     Zr2482   2.340       .  S
H2039      O2040   0.966       .  S
C2041      C2042   1.406       .  A
C2041      C2046   1.394       .  A
C2041      H2047   1.083       .  S
C2042      C2043   1.405       .  A
C2043      C2044   1.394       .  A
C2043      H2048   1.083       .  S
C2044      C2045   1.406       .  A
C2044      H2049   1.083       .  S
C2045      C2046   1.405       .  A
C2046      H2050   1.083       .  S
C2051      C2052   1.405       .  A
C2051      C2056   1.392       .  A
C2051      H2057   1.083       .  S
C2052      C2053   1.405       .  A
C2053      C2054   1.395       .  A
C2053      H2058   1.083       .  S
C2054      C2055   1.407       .  A
C2054      H2059   1.083       .  S
C2055      C2056   1.403       .  A
C2056      H2060   1.083       .  S
C2061      C2062   1.406       .  A
C2061      C2066   1.395       .  A
C2061      H2067   1.083       .  S
C2062      C2063   1.405       .  A
C2063      C2064   1.393       .  A
C2063      H2068   1.083       .  S
C2064      C2065   1.405       .  A
C2064      H2069   1.083       .  S
C2065      C2066   1.406       .  A
C2066      H2070   1.083       .  S
C2071      C2072   1.404       .  A
C2071      C2076   1.395       .  A
C2071      H2077   1.083       .  S
C2072      C2073   1.407       .  A
C2073      C2074   1.398       .  A
C2073      H2078   1.083       .  S
C2074      C2075   1.405       .  A
C2074      H2079   1.083       .  S
C2075      C2076   1.405       .  A
C2076      H2080   1.083       .  S
C2081      C2082   1.407       .  A
C2081      C2086   1.398       .  A
C2081      H2087   1.083       .  S
C2082      C2083   1.406       .  A
C2083      C2084   1.397       .  A
C2083      H2088   1.083       .  S
C2084      C2085   1.406       .  A
C2084      H2089   1.083       .  S
C2085      C2086   1.407       .  A
C2086      H2090   1.083       .  S
C2091      C2092   1.408       .  A
C2091      C2096   1.398       .  A
C2091      H2097   1.083       .  S
C2092      C2093   1.406       .  A
C2093      C2094   1.399       .  A
C2093      H2098   1.083       .  S
C2094      C2095   1.408       .  A
C2094      H2099   1.083       .  S
C2095      C2096   1.406       .  A
C2096      H2100   1.083       .  S
C2101      C2102   1.408       .  A
C2101      C2106   1.398       .  A
C2101      H2107   1.083       .  S
C2102      C2103   1.405       .  A
C2103      C2104   1.396       .  A
C2103      H2108   1.083       .  S
C2104      C2105   1.406       .  A
C2104      H2109   1.083       .  S
C2105      C2106   1.406       .  A
C2106      H2110   1.083       .  S
C2111      C2112   1.406       .  A
C2111      C2116   1.399       .  A
C2111      H2117   1.083       .  S
C2112      C2113   1.408       .  A
C2113      C2114   1.398       .  A
C2113      H2118   1.083       .  S
C2114      C2115   1.405       .  A
C2114      H2119   1.083       .  S
C2115      C2116   1.409       .  A
C2116      H2120   1.083       .  S
C2121      C2122   1.407       .  A
C2121      C2126   1.400       .  A
C2121      H2127   1.083       .  S
C2122      C2123   1.407       .  A
C2123      C2124   1.398       .  A
C2123      H2128   1.083       .  S
C2124      C2125   1.407       .  A
C2124      H2129   1.083       .  S
C2125      C2126   1.407       .  A
C2126      H2130   1.083       .  S
C2131      C2132   1.406       .  A
C2131      C2136   1.395       .  A
C2131      H2137   1.083       .  S
C2132      C2133   1.406       .  A
C2133      C2134   1.397       .  A
C2133      H2138   1.083       .  S
C2134      C2135   1.407       .  A
C2134      H2139   1.083       .  S
C2135      C2136   1.405       .  A
C2136      H2140   1.083       .  S
C2141      C2142   1.408       .  A
C2141      C2146   1.400       .  A
C2141      H2147   1.083       .  S
C2142      C2143   1.406       .  A
C2143      C2144   1.399       .  A
C2143      H2148   1.083       .  S
C2144      C2145   1.407       .  A
C2144      H2149   1.083       .  S
C2145      C2146   1.407       .  A
C2146      H2150   1.083       .  S
C2151      C2152   1.405       .  A
C2151      C2156   1.398       .  A
C2151      H2157   1.083       .  S
C2152      C2153   1.407       .  A
C2153      C2154   1.396       .  A
C2153      H2158   1.083       .  S
C2154      C2155   1.405       .  A
C2154      H2159   1.083       .  S
C2155      C2156   1.408       .  A
C2156      H2160   1.083       .  S
C2161      C2162   1.405       .  A
C2161      C2166   1.395       .  A
C2161      H2167   1.083       .  S
C2162      C2163   1.408       .  A
C2163      C2164   1.398       .  A
C2163      H2168   1.083       .  S
C2164      C2165   1.406       .  A
C2164      H2169   1.083       .  S
C2165      C2485   1.484       .  S
C2165      C2166   1.407       .  A
C2166      H2170   1.083       .  S
C2171      C2172   1.409   1_556  A
C2171      C2176   1.402       .  A
C2171      H2177   1.083       .  S
C2172      C2173   1.407       .  A
C2173      C2174   1.397       .  A
C2173      H2178   1.083       .  S
C2174      C2175   1.406   1_554  A
C2174      H2179   1.083       .  S
C2175      C2486   1.488       .  S
C2175      C2176   1.409       .  A
C2176      H2180   1.083       .  S
C2181      C2182   1.406       .  A
C2181      C2186   1.399       .  A
C2181      H2187   1.083       .  S
C2182      C2183   1.405   1_556  A
C2183      C2184   1.394       .  A
C2183      H2188   1.083       .  S
C2184      C2185   1.404   1_554  A
C2184      H2189   1.083       .  S
C2185      C2455   1.481       .  S
C2185      C2186   1.408       .  A
C2186      H2190   1.083       .  S
C2191      C2192   1.406   1_554  A
C2191      C2196   1.399       .  A
C2191      H2197   1.083       .  S
C2192      C2193   1.407       .  A
C2193      C2194   1.398       .  A
C2193      H2198   1.083       .  S
C2194      C2195   1.407       .  A
C2194      H2199   1.083       .  S
C2195      C2454   1.486   1_556  S
C2195      C2196   1.407   1_556  A
C2196      H2200   1.083       .  S
C2201      C2202   1.406       .  A
C2201      C2206   1.397       .  A
C2201      H2207   1.083       .  S
C2202      C2203   1.407   1_545  A
C2203      C2204   1.398       .  A
C2203      H2208   1.083       .  S
C2204      C2205   1.405   1_565  A
C2204      H2209   1.083       .  S
C2205      C2888   1.482       .  S
C2205      C2206   1.407       .  A
C2206      H2210   1.083       .  S
C2211      C2212   1.406       .  A
C2211      C2216   1.395       .  A
C2211      H2217   1.083       .  S
C2212      C2213   1.408       .  A
C2213      C2214   1.400       .  A
C2213      H2218   1.083       .  S
C2214      C2215   1.408       .  A
C2214      H2219   1.083       .  S
C2215      C2887   1.484       .  S
C2215      C2216   1.405       .  A
C2216      H2220   1.083       .  S
C2221      C2222   1.404       .  A
C2221      C2226   1.394       .  A
C2221      H2227   1.083   1_565  S
C2222      C2223   1.408       .  A
C2223      C2224   1.400       .  A
C2223      H2228   1.083       .  S
C2224      C2225   1.407       .  A
C2224      H2229   1.083       .  S
C2225      C2857   1.485       .  S
C2225      C2226   1.406       .  A
C2226      H2230   1.083   1_565  S
C2231      C2232   1.405       .  A
C2231      C2236   1.392       .  A
C2231      H2237   1.083       .  S
C2232      C2233   1.405   1_545  A
C2233      C2234   1.395       .  A
C2233      H2238   1.083       .  S
C2234      C2235   1.406   1_565  A
C2234      H2239   1.083       .  S
C2235      C2856   1.476       .  S
C2235      C2236   1.404       .  A
C2236      H2240   1.083       .  S
C2241      C2242   1.404       .  A
C2241      C2246   1.395       .  A
C2241      H2247   1.083       .  S
C2243      C2244   1.399       .  A
C2243      H2248   1.083       .  S
C2244      H2249   1.083       .  S
C2245      C2246   1.407       .  A
C2246      H2250   1.083       .  S
C2251      C2252   1.407       .  A
C2251      C2256   1.396       .  A
C2251      H2257   1.083       .  S
C2253      C2254   1.395       .  A
C2253      H2258   1.083       .  S
C2254      H2259   1.083       .  S
C2255      C2256   1.406       .  A
C2256      H2260   1.083       .  S
C2261      C2262   1.407       .  A
C2261      C2266   1.396       .  A
C2261      H2267   1.083       .  S
C2263      C2264   1.397       .  A
C2263      H2268   1.083       .  S
C2264      H2269   1.083       .  S
C2265      C2266   1.405       .  A
C2266      H2270   1.083       .  S
C2271      C2272   1.402       .  A
C2271      C2276   1.391       .  A
C2271      H2277   1.083       .  S
C2273      C2274   1.396       .  A
C2273      H2278   1.083       .  S
C2274      H2279   1.083       .  S
C2275      C2276   1.402       .  A
C2276      H2280   1.083       .  S
O2281     Zr2317   2.439   1_545  S
O2281      C2292   1.293       .  A
O2282     Zr2316   2.435       .  S
O2282      C2293   1.292       .  A
O2283     Zr2289   2.446       .  S
O2283      C2294   1.294       .  A
O2284      C2295   1.292       .  A
O2285     Zr2319   2.439       .  S
O2285      C2295   1.293       .  A
O2286     Zr2318   2.442       .  S
O2286      C2294   1.293       .  A
O2287      C2293   1.289       .  A
O2288     Zr2289   2.441       .  S
O2288      C2292   1.293       .  A
Zr2289     O2291   2.341       .  S
O2291     Zr2317   2.344   1_545  S
O2291     Zr2318   2.343       .  S
C2292      C2728   1.482       .  S
C2293      C2698   1.476       .  S
C2294      C2648   1.488       .  S
C2295      C2628   1.485       .  S
H2296      O2297   0.966       .  S
O2297     Zr2316   2.334       .  S
H2298      O2299   0.965       .  S
O2299     Zr2319   2.338       .  S
O2300     Zr3228   2.435       .  S
O2300      C2323   1.291       .  A
O2301     Zr3229   2.440       .  S
O2301      C2324   1.292       .  A
O2302      C2325   1.293       .  A
O2303      C2326   1.293       .  A
O2304     Zr2319   2.432       .  S
O2304      C2327   1.292       .  A
O2305     Zr2318   2.431   1_565  S
O2305      C2328   1.291       .  A
O2306     Zr2320   2.442       .  S
O2306      C2329   1.293       .  A
O2307      C2330   1.294       .  A
O2308     Zr3230   2.429       .  S
O2308      C2329   1.291       .  A
O2309     Zr3231   2.426       .  S
O2309      C2330   1.290       .  A
O2310     Zr2316   2.445   1_565  S
O2310      C2325   1.293       .  A
O2311     Zr2317   2.440       .  S
O2311      C2328   1.294       .  A
O2312      C2327   1.291       .  A
O2313      C2326   1.295       .  A
O2314      C2323   1.289       .  A
O2315     Zr2320   2.431       .  S
O2315      C2324   1.291       .  A
Zr2316     O3212   2.426   1_545  S
Zr2316     O3234   2.331   1_545  S
Zr2317     O3213   2.437       .  S
Zr2317     O3244   2.341       .  S
Zr2318     O3220   2.437   1_545  S
Zr2318     O2778   2.336   1_545  S
Zr2318     O3244   2.345   1_545  S
Zr2319     O3221   2.433   1_545  S
Zr2319     O3233   2.342   1_545  S
Zr2319     O2790   2.341   1_545  S
Zr2320     O2332   2.341       .  S
O2321     Zr3231   2.336       .  S
O2322     Zr3228   2.334       .  S
O2322     Zr2774   2.335       .  S
C2323      C2708   1.465       .  S
C2324      C2718   1.476       .  S
C2325      C2668   1.487       .  S
C2326      C2658   1.488       .  S
C2327      C2688   1.479       .  S
C2328      C2678   1.481       .  S
C2329      C2638   1.482       .  S
C2330      C2618   1.480       .  S
H2331      O2332   0.966       .  S
O2332     Zr3229   2.341       .  S
O2332     Zr3230   2.346       .  S
H2333      O2334   0.965       .  S
O2334     Zr2775   2.337   1_556  S
O2335     Zr2371   2.439       .  S
O2335      C2346   1.293       .  A
O2336     Zr2370   2.425       .  S
O2336      C2347   1.290       .  A
O2337     Zr2343   2.440       .  S
O2337      C2348   1.293       .  A
O2338      C2349   1.294       .  A
O2339     Zr2373   2.427       .  S
O2339      C2349   1.291       .  A
O2340     Zr2372   2.439       .  S
O2340      C2348   1.293       .  A
O2341     Zr2343   2.433       .  S
O2341      C2347   1.292       .  A
O2342     Zr2343   2.433       .  S
O2342      C2346   1.292       .  A
Zr2343     O2345   2.340       .  S
Zr2343     O2351   2.339       .  S
O2344     Zr2373   2.338       .  S
O2345     Zr2371   2.334       .  S
O2345     Zr2372   2.336       .  S
C2346      C2731   1.480       .  S
C2347      C2701   1.477       .  S
C2348      C2558   1.485       .  S
C2349      C2538   1.480       .  S
H2350      O2351   0.966       .  S
O2351     Zr2370   2.338       .  S
O2351     Zr2372   2.343       .  S
H2352      O2353   0.965       .  S
O2353     Zr2373   2.340       .  S
O2354     Zr2370   2.418       .  S
O2354      C2377   1.289       .  A
O2355     Zr2371   2.429       .  S
O2355      C2378   1.292       .  A
O2356     Zr2372   2.431       .  S
O2356      C2379   1.291       .  A
O2357     Zr2373   2.433       .  S
O2357      C2380   1.292       .  A
O2358     Zr2373   2.437       .  S
O2358      C2381   1.293       .  A
O2359     Zr2372   2.432       .  S
O2359      C2382   1.292       .  A
O2360     Zr2374   2.442       .  S
O2360      C2383   1.294       .  A
O2361      C2384   1.292       .  A
O2362     Zr2372   2.441       .  S
O2362      C2383   1.293       .  A
O2363     Zr2373   2.441       .  S
O2363      C2384   1.293       .  A
O2364     Zr2370   2.441       .  S
O2364      C2379   1.293       .  A
O2365     Zr2371   2.456       .  S
O2365      C2382   1.296       .  A
O2366      C2381   1.291       .  A
O2367      C2380   1.293       .  A
O2368     Zr2374   2.449       .  S
O2368      C2377   1.294       .  A
O2369     Zr2374   2.438       .  S
O2369      C2378   1.293       .  A
Zr2370     O2376   2.340       .  S
Zr2371     O2386   2.343       .  S
Zr2372     O2376   2.340       .  S
Zr2372     O2386   2.339       .  S
Zr2373     O2375   2.336       .  S
Zr2373     O2388   2.336       .  S
Zr2374     O2376   2.340       .  S
Zr2374     O2386   2.348       .  S
C2377      C2711   1.467       .  S
C2378      C2721   1.474       .  S
C2379      C2598   1.482       .  S
C2380      C2608   1.482       .  S
C2381      C2578   1.481       .  S
C2382      C2588   1.490       .  S
C2383      C2568   1.486       .  S
C2384      C2548   1.482       .  S
H2385      O2386   0.966       .  S
H2387      O2388   0.966       .  S
O2389     Zr2425   2.447       .  S
O2389      C2400   1.294       .  A
O2390     Zr2424   2.425       .  S
O2390      C2401   1.290       .  A
O2391     Zr2397   2.434       .  S
O2391      C2402   1.292       .  A
O2392     Zr3309   2.427       .  S
O2392      C2403   1.291       .  A
O2393     Zr2427   2.438       .  S
O2393      C2403   1.293       .  A
O2394     Zr2426   2.417       .  S
O2394      C2402   1.289       .  A
O2395     Zr2397   2.439       .  S
O2395      C2401   1.293       .  A
O2396     Zr2397   2.432       .  S
O2396      C2400   1.292       .  A
Zr2397     O3304   2.428       .  S
Zr2397     O3310   2.338       .  S
Zr2397     O2399   2.334       .  S
Zr2397     O3319   2.340       .  S
Zr2397     O2405   2.337       .  S
O2398     Zr3309   2.341       .  S
O2398     Zr3336   2.338   1_545  S
O2398     Zr2427   2.340       .  S
O2399     Zr2425   2.338       .  S
O2399     Zr2426   2.334       .  S
C2400      C3603   1.485       .  S
C2401      C3593   1.480       .  S
C2402      C2508   1.475       .  S
C2403      C2498   1.476       .  S
H2404      O2405   0.966       .  S
O2405     Zr2424   2.337       .  S
O2405     Zr2426   2.338       .  S
H2406      O2407   0.965       .  S
O2407     Zr3309   2.340       .  S
O2407     Zr3337   2.337       .  S
O2407     Zr2427   2.339       .  S
O2408     Zr2424   2.425       .  S
O2408      C2431   1.290       .  A
O2409     Zr2425   2.449       .  S
O2409      C2432   1.295       .  A
O2410     Zr2426   2.443       .  S
O2410      C2433   1.294       .  A
O2411     Zr2427   2.443       .  S
O2411      C2434   1.294       .  A
O2412     Zr2427   2.440       .  S
O2412      C2435   1.293       .  A
O2413     Zr2426   2.434       .  S
O2413      C2436   1.292       .  A
O2414     Zr2428   2.437       .  S
O2414      C2437   1.293       .  A
O2415     Zr3340   2.434       .  S
O2415      C2438   1.292       .  A
O2416     Zr2426   2.421       .  S
O2416      C2437   1.289       .  A
O2417     Zr2427   2.447       .  S
O2417      C2438   1.294       .  A
O2418     Zr2424   2.428       .  S
O2418      C2433   1.291       .  A
O2419     Zr2425   2.431       .  S
O2419      C2436   1.292       .  A
O2420     Zr3337   2.437       .  S
O2420      C2435   1.293       .  A
O2421     Zr3336   2.436   1_545  S
O2421      C2434   1.293       .  A
O2422     Zr2428   2.444       .  S
O2422      C2431   1.294       .  A
O2423     Zr2428   2.437       .  S
O2423      C2432   1.293       .  A
Zr2424     O3333   2.427       .  S
Zr2424     O3310   2.334       .  S
Zr2424     O2430   2.336       .  S
Zr2424     O3354   2.339       .  S
Zr2425     O3332   2.434       .  S
Zr2425     O3319   2.337       .  S
Zr2425     O3341   2.330       .  S
Zr2425     O2440   2.340       .  S
Zr2426     O2430   2.334       .  S
Zr2426     O2440   2.336       .  S
Zr2427     O2429   2.335       .  S
Zr2427     O2442   2.345       .  S
Zr2428     O3327   2.427       .  S
Zr2428     O3341   2.336       .  S
Zr2428     O2430   2.333       .  S
Zr2428     O3354   2.342       .  S
Zr2428     O2440   2.337       .  S
O2429     Zr3337   2.335       .  S
O2429     Zr3340   2.339       .  S
C2431      C3583   1.482       .  S
C2432      C3573   1.489       .  S
C2433      C2571   1.483       .  S
C2434      C2561   1.485       .  S
C2435      C2541   1.482       .  S
C2436      C2551   1.479       .  S
C2437      C2518   1.476       .  S
C2438      C2528   1.480       .  S
H2439      O2440   0.965       .  S
H2441      O2442   0.966       .  S
O2442     Zr3336   2.343   1_545  S
O2442     Zr3340   2.345       .  S
O2443     Zr2479   2.450       .  S
O2443      C2454   1.295       .  A
O2444     Zr2478   2.439       .  S
O2444      C2455   1.293       .  A
O2445      C2456   1.293       .  A
O2446     Zr2451   2.429       .  S
O2446      C2457   1.291       .  A
O2447     Zr2481   2.438       .  S
O2447      C2457   1.293       .  A
O2448     Zr2480   2.446       .  S
O2448      C2456   1.294       .  A
O2449     Zr2451   2.436       .  S
O2449      C2455   1.292       .  A
O2450     Zr2451   2.437       .  S
O2450      C2454   1.293   1_556  A
Zr2451     O2452   2.337       .  S
Zr2451     O2461   2.342       .  S
O2452     Zr2478   2.337       .  S
O2452     Zr2481   2.340       .  S
O2453     Zr2480   2.332       .  S
C2456      C2591   1.489       .  S
C2457      C2601   1.480       .  S
H2458      O2459   0.966       .  S
O2459     Zr2480   2.341       .  S
H2460      O2461   0.966       .  S
O2461     Zr2479   2.338   1_556  S
O2461     Zr2481   2.339       .  S
O2462     Zr2478   2.442   1_554  S
O2462      C2485   1.294       .  A
O2463     Zr2479   2.449   1_556  S
O2463      C2486   1.295       .  A
O2464     Zr2480   2.428       .  S
O2464      C2487   1.291       .  A
O2465     Zr2481   2.430       .  S
O2465      C2488   1.291       .  A
O2466     Zr2481   2.441       .  S
O2466      C2489   1.293       .  A
O2467     Zr2480   2.428       .  S
O2467      C2490   1.291       .  A
O2468      C2491   1.293       .  A
O2469     Zr2482   2.428   1_556  S
O2469      C2492   1.291       .  A
O2470     Zr2480   2.434       .  S
O2470      C2491   1.292       .  A
O2471     Zr2481   2.432       .  S
O2471      C2492   1.292       .  A
O2472      C2487   1.291       .  A
O2473      C2490   1.292       .  A
O2474     Zr2479   2.429   1_556  S
O2474      C2489   1.291       .  A
O2475     Zr2478   2.446       .  S
O2475      C2488   1.294       .  A
O2476     Zr2482   2.432       .  S
O2476      C2485   1.292       .  A
O2477     Zr2482   2.433       .  S
O2477      C2486   1.292   1_554  A
Zr2478     O2496   2.343       .  S
Zr2479     O2483   2.333   1_554  S
Zr2480     O2484   2.336       .  S
Zr2480     O2494   2.341       .  S
Zr2481     O2483   2.331       .  S
Zr2481     O2496   2.346       .  S
Zr2482     O2483   2.336   1_554  S
Zr2482     O2496   2.341   1_554  S
C2487      C2511   1.476       .  S
C2488      C2521   1.480       .  S
C2489      C2531   1.477       .  S
C2490      C2501   1.475       .  S
C2491      C2581   1.482       .  S
C2492      C2611   1.479       .  S
H2493      O2494   0.966       .  S
H2495      O2496   0.966       .  S
C2497      C2498   1.404       .  A
C2497      C2502   1.394       .  A
C2497      H2503   1.083       .  S
C2498      C2499   1.406       .  A
C2499      C2500   1.395       .  A
C2499      H2504   1.083       .  S
C2500      C2501   1.405       .  A
C2500      H2505   1.083       .  S
C2501      C2502   1.405       .  A
C2502      H2506   1.083       .  S
C2507      C2508   1.403       .  A
C2507      C2512   1.391       .  A
C2507      H2513   1.083       .  S
C2508      C2509   1.407       .  A
C2509      C2510   1.395       .  A
C2509      H2514   1.083       .  S
C2510      C2511   1.405       .  A
C2510      H2515   1.083       .  S
C2511      C2512   1.405       .  A
C2512      H2516   1.083       .  S
C2517      C2518   1.404       .  A
C2517      C2522   1.395       .  A
C2517      H2523   1.083       .  S
C2518      C2519   1.406       .  A
C2519      C2520   1.397       .  A
C2519      H2524   1.083       .  S
C2520      C2521   1.407       .  A
C2520      H2525   1.083       .  S
C2521      C2522   1.405       .  A
C2522      H2526   1.083       .  S
C2527      C2528   1.405       .  A
C2527      C2532   1.396       .  A
C2527      H2533   1.083       .  S
C2528      C2529   1.406       .  A
C2529      C2530   1.400       .  A
C2529      H2534   1.083       .  S
C2530      C2531   1.405       .  A
C2530      H2535   1.083       .  S
C2531      C2532   1.404       .  A
C2532      H2536   1.083       .  S
C2537      C2538   1.407       .  A
C2537      C2542   1.397       .  A
C2537      H2543   1.083       .  S
C2538      C2539   1.404       .  A
C2539      C2540   1.396       .  A
C2539      H2544   1.083       .  S
C2540      C2541   1.407       .  A
C2540      H2545   1.083       .  S
C2541      C2542   1.406       .  A
C2542      H2546   1.083       .  S
C2547      C2548   1.405       .  A
C2547      C2552   1.396       .  A
C2547      H2553   1.083       .  S
C2548      C2549   1.408       .  A
C2549      C2550   1.398       .  A
C2549      H2554   1.083       .  S
C2550      C2551   1.405       .  A
C2550      H2555   1.083       .  S
C2551      C2552   1.406       .  A
C2552      H2556   1.083       .  S
C2557      C2558   1.407       .  A
C2557      C2562   1.397       .  A
C2557      H2563   1.083       .  S
C2558      C2559   1.407       .  A
C2559      C2560   1.398       .  A
C2559      H2564   1.083       .  S
C2560      C2561   1.407       .  A
C2560      H2565   1.083       .  S
C2561      C2562   1.406       .  A
C2562      H2566   1.083       .  S
C2567      C2568   1.406       .  A
C2567      C2572   1.397       .  A
C2567      H2573   1.083       .  S
C2568      C2569   1.408       .  A
C2569      C2570   1.398       .  A
C2569      H2574   1.083       .  S
C2570      C2571   1.405       .  A
C2570      H2575   1.083       .  S
C2571      C2572   1.407       .  A
C2572      H2576   1.083       .  S
C2577      C2578   1.405       .  A
C2577      C2582   1.397       .  A
C2577      H2583   1.083       .  S
C2578      C2579   1.407       .  A
C2579      C2580   1.395       .  A
C2579      H2584   1.083       .  S
C2580      C2581   1.404       .  A
C2580      H2585   1.083       .  S
C2581      C2582   1.408       .  A
C2582      H2586   1.083       .  S
C2587      C2588   1.409       .  A
C2587      C2592   1.399       .  A
C2587      H2593   1.083       .  S
C2588      C2589   1.406       .  A
C2589      C2590   1.401       .  A
C2589      H2594   1.083       .  S
C2590      C2591   1.408       .  A
C2590      H2595   1.083       .  S
C2591      C2592   1.406       .  A
C2592      H2596   1.083       .  S
C2597      C2598   1.407       .  A
C2597      C2602   1.397       .  A
C2597      H2603   1.083       .  S
C2598      C2599   1.405       .  A
C2599      C2600   1.395       .  A
C2599      H2604   1.083       .  S
C2600      C2601   1.406       .  A
C2600      H2605   1.083       .  S
C2601      C2602   1.406       .  A
C2602      H2606   1.083       .  S
C2607      C2608   1.405       .  A
C2607      C2612   1.397       .  A
C2607      H2613   1.083       .  S
C2608      C2609   1.407       .  A
C2609      C2610   1.395       .  A
C2609      H2614   1.083       .  S
C2610      C2611   1.405       .  A
C2610      H2615   1.083       .  S
C2611      C2612   1.407       .  A
C2612      H2616   1.083       .  S
C2617      C2618   1.404       .  A
C2617      C2622   1.392       .  A
C2617      H2623   1.083       .  S
C2618      C2619   1.408       .  A
C2619      C2620   1.398       .  A
C2619      H2624   1.083       .  S
C2620      C2621   1.406       .  A
C2620      H2625   1.083       .  S
C2621      C2622   1.405       .  A
C2622      H2626   1.083       .  S
C2627      C2628   1.408       .  A
C2627      C2632   1.400       .  A
C2627      H2633   1.083       .  S
C2628      C2629   1.406       .  A
C2629      C2630   1.396       .  A
C2629      H2634   1.083       .  S
C2630      C2631   1.406       .  A
C2630      H2635   1.083       .  S
C2631      C2632   1.408       .  A
C2632      H2636   1.083       .  S
C2637      C2638   1.405       .  A
C2637      C2642   1.397       .  A
C2637      H2643   1.083       .  S
C2638      C2639   1.407       .  A
C2639      C2640   1.396       .  A
C2639      H2644   1.083       .  S
C2640      C2641   1.405       .  A
C2640      H2645   1.083       .  S
C2641      C2642   1.407       .  A
C2642      H2646   1.083       .  S
C2647      C2648   1.408       .  A
C2647      C2652   1.399       .  A
C2647      H2653   1.083       .  S
C2648      C2649   1.406       .  A
C2649      C2650   1.398       .  A
C2649      H2654   1.083       .  S
C2650      C2651   1.408       .  A
C2650      H2655   1.083       .  S
C2651      C2652   1.405       .  A
C2652      H2656   1.083       .  S
C2657      C2658   1.406       .  A
C2657      C2662   1.397       .  A
C2657      H2663   1.083       .  S
C2658      C2659   1.408   1_545  A
C2659      C2660   1.401       .  A
C2659      H2664   1.083       .  S
C2660      C2661   1.407   1_565  A
C2660      H2665   1.083       .  S
C2661      C3344   1.486       .  S
C2661      C2662   1.406       .  A
C2662      H2666   1.083       .  S
C2667      C2668   1.407       .  A
C2667      C2672   1.396       .  A
C2667      H2673   1.083       .  S
C2668      C2669   1.407       .  A
C2669      C2670   1.401       .  A
C2669      H2674   1.083       .  S
C2670      C2671   1.408       .  A
C2670      H2675   1.083       .  S
C2671      C3343   1.486       .  S
C2671      C2672   1.406       .  A
C2672      H2676   1.083   1_565  S
C2677      C2678   1.404       .  A
C2677      C2682   1.393       .  A
C2677      H2683   1.083       .  S
C2678      C2679   1.408       .  A
C2679      C2680   1.398       .  A
C2679      H2684   1.083       .  S
C2680      C2681   1.406       .  A
C2680      H2685   1.083       .  S
C2681      C3313   1.481       .  S
C2681      C2682   1.406       .  A
C2682      H2686   1.083       .  S
C2687      C2688   1.405       .  A
C2687      C2692   1.394       .  A
C2687      H2693   1.083       .  S
C2688      C2689   1.406       .  A
C2689      C2690   1.396       .  A
C2689      H2694   1.083   1_545  S
C2690      C2691   1.406       .  A
C2690      H2695   1.083   1_545  S
C2691      C3312   1.481       .  S
C2691      C2692   1.407       .  A
C2692      H2696   1.083       .  S
C2697      C2698   1.407       .  A
C2697      C2702   1.394       .  A
C2697      H2703   1.083       .  S
C2699      C2700   1.396       .  A
C2699      H2704   1.083       .  S
C2700      H2705   1.083       .  S
C2701      C2702   1.405       .  A
C2702      H2706   1.083       .  S
C2707      C2708   1.402       .  A
C2707      C2712   1.394       .  A
C2707      H2713   1.084       .  S
C2709      C2710   1.394       .  A
C2709      H2714   1.083       .  S
C2710      H2715   1.083       .  S
C2711      C2712   1.404       .  A
C2712      H2716   1.084       .  S
C2717      C2718   1.404       .  A
C2717      C2722   1.394       .  A
C2717      H2723   1.083       .  S
C2719      C2720   1.396       .  A
C2719      H2724   1.083       .  S
C2720      H2725   1.083       .  S
C2721      C2722   1.404       .  A
C2722      H2726   1.083       .  S
C2727      C2728   1.406       .  A
C2727      C2732   1.397       .  A
C2727      H2733   1.083       .  S
C2729      C2730   1.398       .  A
C2729      H2734   1.083       .  S
C2730      H2735   1.083       .  S
C2731      C2732   1.406       .  A
C2732      H2736   1.083       .  S
O2737     Zr2773   2.437       .  S
O2737      C2748   1.293       .  A
O2738     Zr2772   2.435       .  S
O2738      C2749   1.292       .  A
O2739     Zr2745   2.431       .  S
O2739      C2750   1.291       .  A
O2740      C2751   1.294       .  A
O2741     Zr2775   2.436       .  S
O2741      C2751   1.293       .  A
O2742     Zr2774   2.436       .  S
O2742      C2750   1.292       .  A
O2743     Zr3201   2.431       .  S
O2743      C2749   1.292       .  A
O2744     Zr2745   2.422   1_554  S
O2744      C2748   1.290       .  A
Zr2745     O3199   2.419       .  S
Zr2745     O2747   2.336   1_556  S
Zr2745     O3209   2.335       .  S
O2746     Zr3231   2.334       .  S
O2747     Zr2773   2.338       .  S
O2747     Zr2774   2.337   1_554  S
C2748      C3184   1.478       .  S
C2749      C3154   1.479       .  S
C2750      C3104   1.482       .  S
C2751      C3084   1.487       .  S
H2752      O2753   0.965       .  S
O2753     Zr3201   2.336       .  S
O2753     Zr2772   2.334       .  S
O2753     Zr3230   2.336       .  S
H2754      O2755   0.965       .  S
O2755     Zr2775   2.340       .  S
O2756      C2779   1.292       .  A
O2757      C2780   1.292       .  A
O2758     Zr3230   2.432       .  S
O2758      C2781   1.292       .  A
O2759     Zr3231   2.438       .  S
O2759      C2782   1.292       .  A
O2760     Zr2775   2.431       .  S
O2760      C2783   1.291       .  A
O2761     Zr2774   2.445   1_554  S
O2761      C2784   1.294       .  A
O2762     Zr2776   2.438   1_556  S
O2762      C2785   1.293       .  A
O2763      C2786   1.292       .  A
O2764      C2785   1.292       .  A
O2765      C2786   1.293       .  A
O2766     Zr2772   2.449       .  S
O2766      C2781   1.295       .  A
O2767     Zr2773   2.445       .  S
O2767      C2784   1.294       .  A
O2768      C2783   1.294       .  A
O2769      C2782   1.292       .  A
O2770     Zr3232   2.423       .  S
O2770      C2779   1.290       .  A
O2771     Zr2776   2.433       .  S
O2771      C2780   1.292       .  A
Zr2774     O3214   2.443       .  S
Zr2774     O3209   2.339       .  S
Zr2775     O3215   2.442   1_554  S
Zr2775     O3202   2.337   1_554  S
Zr2776     O3226   2.427   1_554  S
Zr2776     O3234   2.339   1_554  S
Zr2776     O2788   2.337       .  S
O2778     Zr3232   2.339       .  S
C2779      C3164   1.478       .  S
C2780      C3174   1.482       .  S
C2781      C3124   1.487       .  S
C2782      C3114   1.480       .  S
C2783      C3144   1.477       .  S
C2784      C3134   1.486       .  S
C2785      C3094   1.483       .  S
C2786      C3074   1.485       .  S
H2787      O2788   0.965       .  S
H2789      O2790   0.966       .  S
O2791     Zr2827   2.417       .  S
O2791      C2802   1.289       .  A
O2792     Zr2826   2.431       .  S
O2792      C2803   1.291       .  A
O2793     Zr2799   2.447       .  S
O2793      C2804   1.295       .  A
O2794      C2805   1.292       .  A
O2795     Zr2829   2.432       .  S
O2795      C2805   1.291       .  A
O2796     Zr2828   2.428       .  S
O2796      C2804   1.291       .  A
O2797     Zr2799   2.447       .  S
O2797      C2803   1.295       .  A
O2798     Zr2799   2.442       .  S
O2798      C2802   1.294       .  A
Zr2799     O2801   2.338       .  S
Zr2799     O2807   2.341       .  S
O2800     Zr2829   2.335       .  S
O2801     Zr2827   2.337       .  S
O2801     Zr2828   2.337       .  S
C2802      C3187   1.478       .  S
C2803      C3157   1.482       .  S
C2804      C3014   1.483       .  S
C2805      C2994   1.481       .  S
H2806      O2807   0.966       .  S
O2807     Zr2826   2.342       .  S
O2807     Zr2828   2.345       .  S
H2808      O2809   0.966       .  S
O2809     Zr2829   2.338       .  S
O2810     Zr2826   2.436       .  S
O2810      C2833   1.293       .  A
O2811     Zr2827   2.427       .  S
O2811      C2834   1.291       .  A
O2812     Zr2828   2.438       .  S
O2812      C2835   1.293       .  A
O2813     Zr2829   2.435       .  S
O2813      C2836   1.292       .  A
O2814     Zr2829   2.438       .  S
O2814      C2837   1.292       .  A
O2815     Zr2828   2.437       .  S
O2815      C2838   1.293       .  A
O2816     Zr2830   2.437       .  S
O2816      C2839   1.292       .  A
O2817      C2840   1.296       .  A
O2818     Zr2828   2.447       .  S
O2818      C2839   1.294       .  A
O2819     Zr2829   2.420       .  S
O2819      C2840   1.290       .  A
O2820     Zr2826   2.436       .  S
O2820      C2835   1.293       .  A
O2821     Zr2827   2.435       .  S
O2821      C2838   1.292       .  A
O2822      C2837   1.295       .  A
O2823      C2836   1.293       .  A
O2824     Zr2830   2.418       .  S
O2824      C2833   1.289       .  A
O2825     Zr2830   2.435       .  S
O2825      C2834   1.292       .  A
Zr2826     O2832   2.341       .  S
Zr2827     O2842   2.340       .  S
Zr2828     O2832   2.335       .  S
Zr2828     O2842   2.341       .  S
Zr2829     O2831   2.343       .  S
Zr2829     O2844   2.343       .  S
Zr2830     O2832   2.339       .  S
Zr2830     O2842   2.337       .  S
C2833      C3167   1.476       .  S
C2834      C3177   1.481       .  S
C2835      C3054   1.482       .  S
C2836      C3064   1.483       .  S
C2837      C3034   1.489       .  S
C2838      C3044   1.483       .  S
C2839      C3024   1.487       .  S
C2840      C3004   1.484       .  S
H2841      O2842   0.966       .  S
H2843      O2844   0.965       .  S
O2845     Zr2881   2.423       .  S
O2845      C2856   1.290       .  A
O2846     Zr2880   2.438       .  S
O2846      C2857   1.293   1_545  A
O2847     Zr2853   2.431   1_565  S
O2847      C2858   1.291       .  A
O2848      C2859   1.293       .  A
O2849     Zr2883   2.427       .  S
O2849      C2859   1.291       .  A
O2850     Zr2882   2.427       .  S
O2850      C2858   1.291       .  A
O2851     Zr2853   2.441   1_565  S
O2851      C2857   1.293       .  A
O2852     Zr2853   2.433       .  S
O2852      C2856   1.292       .  A
Zr2853     O2855   2.338   1_545  S
Zr2853     O2861   2.335   1_545  S
O2854     Zr2883   2.334       .  S
O2855     Zr2881   2.339   1_565  S
O2855     Zr2882   2.338       .  S
C2858      C2964   1.476       .  S
C2859      C2954   1.479       .  S
H2860      O2861   0.965       .  S
O2861     Zr2880   2.334   1_565  S
O2861     Zr2882   2.335       .  S
H2862      O2863   0.966       .  S
O2863     Zr2883   2.342       .  S
O2864     Zr2880   2.434       .  S
O2864      C2887   1.292       .  A
O2865     Zr2881   2.427       .  S
O2865      C2888   1.291       .  A
O2866     Zr2882   2.432       .  S
O2866      C2889   1.292       .  A
O2867     Zr2883   2.437       .  S
O2867      C2890   1.293       .  A
O2868     Zr2883   2.435       .  S
O2868      C2891   1.293       .  A
O2869     Zr2882   2.433       .  S
O2869      C2892   1.292       .  A
O2870     Zr2884   2.442   1_565  S
O2870      C2893   1.294       .  A
O2871      C2894   1.290       .  A
O2872     Zr2882   2.430       .  S
O2872      C2893   1.291       .  A
O2873     Zr2883   2.432       .  S
O2873      C2894   1.292       .  A
O2874     Zr2880   2.442   1_565  S
O2874      C2889   1.294       .  A
O2875     Zr2881   2.445   1_565  S
O2875      C2892   1.294       .  A
O2876      C2891   1.291       .  A
O2877      C2890   1.291       .  A
O2878     Zr2884   2.440       .  S
O2878      C2887   1.294       .  A
O2879     Zr2884   2.447       .  S
O2879      C2888   1.294       .  A
Zr2880     O2886   2.340   1_545  S
Zr2881     O2896   2.339   1_545  S
Zr2882     O2886   2.337       .  S
Zr2882     O2896   2.339       .  S
Zr2883     O2885   2.334       .  S
Zr2883     O2898   2.338       .  S
Zr2884     O2886   2.339   1_545  S
Zr2884     O2896   2.340   1_545  S
C2889      C3027   1.485       .  S
C2890      C3017   1.481       .  S
C2891      C2997   1.480       .  S
C2892      C3007   1.485       .  S
C2893      C2974   1.484       .  S
C2894      C2984   1.475       .  S
H2895      O2896   0.966       .  S
H2897      O2898   0.966       .  S
O2899     Zr2935   2.448       .  S
O2899      C2910   1.294       .  A
O2900     Zr2934   2.424       .  S
O2900      C2911   1.291       .  A
O2901     Zr3363   2.423   1_554  S
O2901      C2912   1.289       .  A
O2902     Zr2907   2.436       .  S
O2902      C2913   1.293       .  A
O2903     Zr2937   2.434       .  S
O2903      C2913   1.292       .  A
O2904     Zr2936   2.445       .  S
O2904      C2912   1.294       .  A
O2905     Zr2907   2.439       .  S
O2905      C2911   1.293       .  A
O2906     Zr2907   2.433       .  S
O2906      C2910   1.292       .  A
Zr2907     O3357   2.444       .  S
Zr2907     O2908   2.340       .  S
Zr2907     O3365   2.340       .  S
Zr2907     O2917   2.340       .  S
Zr2907     O3371   2.337       .  S
O2908     Zr2934   2.334       .  S
O2908     Zr2937   2.335       .  S
O2909     Zr3363   2.337   1_554  S
O2909     Zr3391   2.339       .  S
O2909     Zr2936   2.334       .  S
C2910      C3563   1.482       .  S
C2911      C3553   1.481       .  S
C2912      C3047   1.481       .  S
C2913      C3057   1.481       .  S
H2914      O2915   0.966       .  S
O2915     Zr3363   2.336   1_554  S
O2915     Zr3390   2.341   1_554  S
O2915     Zr2936   2.343       .  S
H2916      O2917   0.965       .  S
O2917     Zr2935   2.337       .  S
O2917     Zr2937   2.342       .  S
O2918     Zr2934   2.436       .  S
O2918      C2941   1.292       .  A
O2919     Zr2935   2.434       .  S
O2919      C2942   1.293       .  A
O2920     Zr2936   2.420       .  S
O2920      C2943   1.290       .  A
O2921     Zr2937   2.428       .  S
O2921      C2944   1.291       .  A
O2922     Zr2937   2.422       .  S
O2922      C2945   1.290       .  A
O2923     Zr2936   2.440       .  S
O2923      C2946   1.293       .  A
O2924     Zr3394   2.433       .  S
O2924      C2947   1.292       .  A
O2925     Zr2938   2.435       .  S
O2925      C2948   1.292       .  A
O2926     Zr2936   2.448       .  S
O2926      C2947   1.294       .  A
O2927     Zr2937   2.437       .  S
O2927      C2948   1.293       .  A
O2928     Zr3390   2.437   1_554  S
O2928      C2943   1.293       .  A
O2929     Zr3391   2.431       .  S
O2929      C2946   1.292       .  A
O2930     Zr2935   2.430       .  S
O2930      C2945   1.291       .  A
O2931     Zr2934   2.448       .  S
O2931      C2944   1.295       .  A
O2932     Zr2938   2.435       .  S
O2932      C2941   1.293       .  A
O2933     Zr2938   2.439       .  S
O2933      C2942   1.293       .  A
Zr2934     O3384   2.441       .  S
Zr2934     O3371   2.342       .  S
Zr2934     O3396   2.333       .  S
Zr2934     O2952   2.337       .  S
Zr2935     O3385   2.432       .  S
Zr2935     O3365   2.339       .  S
Zr2935     O2939   2.338       .  S
Zr2935     O3406   2.341       .  S
Zr2936     O2940   2.334       .  S
Zr2936     O2950   2.338       .  S
Zr2937     O2939   2.333       .  S
Zr2937     O2952   2.338       .  S
Zr2938     O3380   2.435       .  S
Zr2938     O2939   2.336       .  S
Zr2938     O3396   2.332       .  S
Zr2938     O2952   2.340       .  S
Zr2938     O3406   2.338       .  S
O2940     Zr3390   2.337   1_554  S
O2940     Zr3394   2.329       .  S
C2941      C3533   1.483       .  S
C2942      C3543   1.483       .  S
C2943      C2967   1.476       .  S
C2944      C2977   1.485       .  S
C2945      C2987   1.474       .  S
C2946      C2957   1.479       .  S
C2947      C3037   1.487       .  S
C2948      C3067   1.483       .  S
H2949      O2950   0.966       .  S
O2950     Zr3391   2.343       .  S
O2950     Zr3394   2.341       .  S
H2951      O2952   0.966       .  S
C2953      C2954   1.407       .  A
C2953      C2958   1.398       .  A
C2953      H2959   1.083       .  S
C2954      C2955   1.404       .  A
C2955      C2956   1.395       .  A
C2955      H2960   1.083       .  S
C2956      C2957   1.406       .  A
C2956      H2961   1.083       .  S
C2957      C2958   1.406       .  A
C2958      H2962   1.083       .  S
C2963      C2964   1.405       .  A
C2963      C2968   1.393       .  A
C2963      H2969   1.083       .  S
C2964      C2965   1.405       .  A
C2965      C2966   1.394       .  A
C2965      H2970   1.083       .  S
C2966      C2967   1.406       .  A
C2966      H2971   1.083       .  S
C2967      C2968   1.404       .  A
C2968      H2972   1.083       .  S
C2973      C2974   1.405       .  A
C2973      C2978   1.396       .  A
C2973      H2979   1.083       .  S
C2974      C2975   1.408       .  A
C2975      C2976   1.399       .  A
C2975      H2980   1.083       .  S
C2976      C2977   1.408       .  A
C2976      H2981   1.083       .  S
C2977      C2978   1.405       .  A
C2978      H2982   1.083       .  S
C2983      C2984   1.406       .  A
C2983      C2988   1.394       .  A
C2983      H2989   1.083       .  S
C2984      C2985   1.404       .  A
C2985      C2986   1.393       .  A
C2985      H2990   1.083       .  S
C2986      C2987   1.405       .  A
C2986      H2991   1.083       .  S
C2987      C2988   1.405       .  A
C2988      H2992   1.083       .  S
C2993      C2994   1.407       .  A
C2993      C2998   1.396       .  A
C2993      H2999   1.083       .  S
C2994      C2995   1.405       .  A
C2995      C2996   1.395       .  A
C2995      H3000   1.083       .  S
C2996      C2997   1.406       .  A
C2996      H3001   1.083       .  S
C2997      C2998   1.405       .  A
C2998      H3002   1.083       .  S
C3003      C3004   1.408       .  A
C3003      C3008   1.399       .  A
C3003      H3009   1.083       .  S
C3004      C3005   1.404       .  A
C3005      C3006   1.396       .  A
C3005      H3010   1.083       .  S
C3006      C3007   1.406       .  A
C3006      H3011   1.083       .  S
C3007      C3008   1.408       .  A
C3008      H3012   1.083       .  S
C3013      C3014   1.407       .  A
C3013      C3018   1.395       .  A
C3013      H3019   1.083       .  S
C3014      C3015   1.405       .  A
C3015      C3016   1.397       .  A
C3015      H3020   1.083       .  S
C3016      C3017   1.407       .  A
C3016      H3021   1.083       .  S
C3017      C3018   1.405       .  A
C3018      H3022   1.083       .  S
C3023      C3024   1.408       .  A
C3023      C3028   1.398       .  A
C3023      H3029   1.083       .  S
C3024      C3025   1.406       .  A
C3025      C3026   1.398       .  A
C3025      H3030   1.083       .  S
C3026      C3027   1.408       .  A
C3026      H3031   1.083       .  S
C3027      C3028   1.405       .  A
C3028      H3032   1.083       .  S
C3033      C3034   1.408       .  A
C3033      C3038   1.400       .  A
C3033      H3039   1.083       .  S
C3034      C3035   1.406       .  A
C3035      C3036   1.399       .  A
C3035      H3040   1.083       .  S
C3036      C3037   1.408       .  A
C3036      H3041   1.083       .  S
C3037      C3038   1.406       .  A
C3038      H3042   1.083       .  S
C3043      C3044   1.405       .  A
C3043      C3048   1.393       .  A
C3043      H3049   1.083       .  S
C3044      C3045   1.407       .  A
C3045      C3046   1.400       .  A
C3045      H3050   1.083       .  S
C3046      C3047   1.408       .  A
C3046      H3051   1.083       .  S
C3047      C3048   1.404       .  A
C3048      H3052   1.083       .  S
C3053      C3054   1.407       .  A
C3053      C3058   1.399       .  A
C3053      H3059   1.083       .  S
C3054      C3055   1.406       .  A
C3055      C3056   1.394       .  A
C3055      H3060   1.083       .  S
C3056      C3057   1.405       .  A
C3056      H3061   1.083       .  S
C3057      C3058   1.407       .  A
C3058      H3062   1.083       .  S
C3063      C3064   1.407       .  A
C3063      C3068   1.398       .  A
C3063      H3069   1.083       .  S
C3064      C3065   1.406       .  A
C3065      C3066   1.395       .  A
C3065      H3070   1.083       .  S
C3066      C3067   1.406       .  A
C3066      H3071   1.083       .  S
C3067      C3068   1.407       .  A
C3068      H3072   1.083       .  S
C3073      C3074   1.406       .  A
C3073      C3078   1.396       .  A
C3073      H3079   1.083       .  S
C3074      C3075   1.407       .  A
C3075      C3076   1.398       .  A
C3075      H3080   1.083       .  S
C3076      C3077   1.406       .  A
C3076      H3081   1.083       .  S
C3077      C3397   1.483       .  S
C3077      C3078   1.407       .  A
C3078      H3082   1.083       .  S
C3083      C3084   1.407       .  A
C3083      C3088   1.400       .  A
C3083      H3089   1.083       .  S
C3084      C3085   1.407       .  A
C3085      C3086   1.397       .  A
C3085      H3090   1.083       .  S
C3086      C3087   1.406       .  A
C3086      H3091   1.083       .  S
C3087      C3398   1.487       .  S
C3087      C3088   1.408       .  A
C3088      H3092   1.083       .  S
C3093      C3094   1.406       .  A
C3093      C3098   1.400       .  A
C3093      H3099   1.083       .  S
C3094      C3095   1.406       .  A
C3095      C3096   1.394       .  A
C3095      H3100   1.083       .  S
C3096      C3097   1.404       .  A
C3096      H3101   1.083       .  S
C3097      C3367   1.485       .  S
C3097      C3098   1.409       .  A
C3098      H3102   1.083       .  S
C3103      C3104   1.406       .  A
C3103      C3108   1.397   1_556  A
C3103      H3109   1.083       .  S
C3104      C3105   1.406       .  A
C3105      C3106   1.397       .  A
C3105      H3110   1.083       .  S
C3106      C3107   1.408   1_556  A
C3106      H3111   1.083       .  S
C3107      C3366   1.484       .  S
C3107      C3108   1.406       .  A
C3108      H3112   1.083       .  S
C3113      C3114   1.405       .  A
C3113      C3118   1.397       .  A
C3113      H3119   1.083       .  S
C3114      C3115   1.406       .  A
C3115      C3116   1.398       .  A
C3115      H3120   1.083       .  S
C3116      C3117   1.405       .  A
C3116      H3121   1.083       .  S
C3117      C3118   1.406       .  A
C3118      H3122   1.083       .  S
C3123      C3124   1.408       .  A
C3123      C3128   1.398       .  A
C3123      H3129   1.083       .  S
C3124      C3125   1.406       .  A
C3125      C3126   1.399       .  A
C3125      H3130   1.083       .  S
C3126      C3127   1.407       .  A
C3126      H3131   1.083       .  S
C3127      C3128   1.407       .  A
C3128      H3132   1.083       .  S
C3133      C3134   1.406       .  A
C3133      C3138   1.399       .  A
C3133      H3139   1.083       .  S
C3134      C3135   1.407       .  A
C3135      C3136   1.401       .  A
C3135      H3140   1.083       .  S
C3136      C3137   1.407       .  A
C3136      H3141   1.083       .  S
C3137      C3138   1.406       .  A
C3138      H3142   1.083       .  S
C3143      C3144   1.406       .  A
C3143      C3148   1.397       .  A
C3143      H3149   1.083       .  S
C3144      C3145   1.404       .  A
C3145      C3146   1.399       .  A
C3145      H3150   1.083       .  S
C3146      C3147   1.407       .  A
C3146      H3151   1.083       .  S
C3147      C3148   1.403       .  A
C3148      H3152   1.083       .  S
C3153      C3154   1.405       .  A
C3153      C3158   1.397       .  A
C3153      H3159   1.083       .  S
C3155      C3156   1.394       .  A
C3155      H3160   1.083       .  S
C3156      H3161   1.083       .  S
C3157      C3158   1.408       .  A
C3158      H3162   1.083       .  S
C3163      C3164   1.407       .  A
C3163      C3168   1.394       .  A
C3163      H3169   1.083       .  S
C3165      C3166   1.394       .  A
C3165      H3170   1.083   1_455  S
C3166      H3171   1.083       .  S
C3167      C3168   1.404       .  A
C3168      H3172   1.083       .  S
C3173      C3174   1.406       .  A
C3173      C3178   1.396       .  A
C3173      H3179   1.083       .  S
C3175      C3176   1.395       .  A
C3175      H3180   1.083       .  S
C3176      H3181   1.083       .  S
C3177      C3178   1.406       .  A
C3178      H3182   1.083       .  S
C3183      C3184   1.404       .  A
C3183      C3188   1.391       .  A
C3183      H3189   1.083       .  S
C3185      C3186   1.392       .  A
C3185      H3190   1.083       .  S
C3186      H3191   1.083       .  S
C3187      C3188   1.403       .  A
C3188      H3192   1.083       .  S
O3193     Zr3229   2.435       .  S
O3193      C3204   1.292       .  A
O3194     Zr3228   2.438       .  S
O3194      C3205   1.293       .  A
O3195     Zr3201   2.436       .  S
O3195      C3206   1.292       .  A
O3196      C3207   1.295       .  A
O3197     Zr3231   2.427       .  S
O3197      C3207   1.291       .  A
O3198     Zr3230   2.438       .  S
O3198      C3206   1.292       .  A
O3199      C3205   1.289       .  A
O3200     Zr3201   2.426       .  S
O3200      C3204   1.291       .  A
Zr3201     O3203   2.338       .  S
O3203     Zr3229   2.342       .  S
O3203     Zr3230   2.338       .  S
C3204      C3640   1.478       .  S
C3205      C3610   1.478       .  S
C3206      C3560   1.481       .  S
C3207      C3540   1.484       .  S
H3208      O3209   0.966       .  S
O3209     Zr3228   2.341       .  S
H3210      O3211   0.966       .  S
O3211     Zr3231   2.341       .  S
O3212      C3235   1.291       .  A
O3213      C3236   1.293       .  A
O3214      C3237   1.294       .  A
O3215      C3238   1.293       .  A
O3216     Zr3231   2.439       .  S
O3216      C3239   1.293       .  A
O3217     Zr3230   2.427       .  S
O3217      C3240   1.291       .  A
O3218     Zr3232   2.439       .  S
O3218      C3241   1.293       .  A
O3219      C3242   1.294       .  A
O3220      C3241   1.293       .  A
O3221      C3242   1.292       .  A
O3222     Zr3228   2.429       .  S
O3222      C3237   1.291       .  A
O3223     Zr3229   2.437       .  S
O3223      C3240   1.293       .  A
O3224      C3239   1.292       .  A
O3225      C3238   1.295       .  A
O3226      C3235   1.291       .  A
O3227     Zr3232   2.431       .  S
O3227      C3236   1.291       .  A
Zr3232     O3244   2.338       .  S
C3235      C3620   1.475       .  S
C3236      C3630   1.481       .  S
C3237      C3580   1.482       .  S
C3238      C3570   1.491       .  S
C3239      C3600   1.483       .  S
C3240      C3590   1.479       .  S
C3241      C3550   1.483       .  S
C3242      C3530   1.483       .  S
H3243      O3244   0.965       .  S
H3245      O3246   0.966       .  S
O3247     Zr3283   2.426       .  S
O3247      C3258   1.291       .  A
O3248     Zr3282   2.434       .  S
O3248      C3259   1.292       .  A
O3249     Zr3255   2.436       .  S
O3249      C3260   1.293       .  A
O3250      C3261   1.294       .  A
O3251     Zr3285   2.419       .  S
O3251      C3261   1.289       .  A
O3252     Zr3284   2.426       .  S
O3252      C3260   1.291       .  A
O3253     Zr3255   2.427       .  S
O3253      C3259   1.291       .  A
O3254     Zr3255   2.430       .  S
O3254      C3258   1.291       .  A
Zr3255     O3257   2.338       .  S
Zr3255     O3263   2.342       .  S
O3256     Zr3285   2.335       .  S
O3257     Zr3283   2.333       .  S
O3257     Zr3284   2.337       .  S
C3258      C3643   1.477       .  S
C3259      C3613   1.478       .  S
C3260      C3470   1.479       .  S
C3261      C3450   1.478       .  S
H3262      O3263   0.966       .  S
O3263     Zr3282   2.338       .  S
O3263     Zr3284   2.341       .  S
H3264      O3265   0.966       .  S
O3265     Zr3285   2.342       .  S
O3266     Zr3282   2.427       .  S
O3266      C3289   1.291       .  A
O3267     Zr3283   2.424       .  S
O3267      C3290   1.290       .  A
O3268     Zr3284   2.424       .  S
O3268      C3291   1.290       .  A
O3269     Zr3285   2.429       .  S
O3269      C3292   1.291       .  A
O3270     Zr3285   2.433       .  S
O3270      C3293   1.291       .  A
O3271     Zr3284   2.427       .  S
O3271      C3294   1.291       .  A
O3272     Zr3286   2.440       .  S
O3272      C3295   1.293       .  A
O3273      C3296   1.293       .  A
O3274     Zr3284   2.436       .  S
O3274      C3295   1.292       .  A
O3275     Zr3285   2.423       .  S
O3275      C3296   1.290       .  A
O3276     Zr3282   2.438       .  S
O3276      C3291   1.293       .  A
O3277     Zr3283   2.439       .  S
O3277      C3294   1.293       .  A
O3278      C3293   1.293       .  A
O3279      C3292   1.292       .  A
O3280     Zr3286   2.436       .  S
O3280      C3289   1.293       .  A
O3281     Zr3286   2.441       .  S
O3281      C3290   1.294       .  A
Zr3282     O3288   2.341       .  S
Zr3283     O3298   2.337       .  S
Zr3284     O3288   2.339       .  S
Zr3284     O3298   2.337       .  S
Zr3285     O3287   2.338       .  S
Zr3285     O3300   2.336       .  S
Zr3286     O3288   2.346       .  S
Zr3286     O3298   2.338       .  S
C3289      C3623   1.477       .  S
C3290      C3633   1.480       .  S
C3291      C3510   1.477       .  S
C3292      C3520   1.479       .  S
C3293      C3490   1.482       .  S
C3294      C3500   1.481       .  S
C3295      C3480   1.483       .  S
C3296      C3460   1.480       .  S
H3297      O3298   0.965       .  S
H3299      O3300   0.965       .  S
O3301     Zr3337   2.442       .  S
O3301      C3312   1.294       .  A
O3302     Zr3336   2.431       .  S
O3302      C3313   1.292       .  A
O3303     Zr3309   2.442   1_565  S
O3303      C3314   1.293       .  A
O3304      C3315   1.291       .  A
O3305     Zr3339   2.427       .  S
O3305      C3315   1.291       .  A
O3306     Zr3338   2.423       .  S
O3306      C3314   1.289       .  A
O3307     Zr3309   2.436   1_565  S
O3307      C3313   1.292       .  A
O3308     Zr3309   2.431       .  S
O3308      C3312   1.292       .  A
Zr3309     O3311   2.337   1_545  S
Zr3309     O3317   2.334   1_545  S
O3310     Zr3339   2.333       .  S
O3311     Zr3337   2.341   1_565  S
O3311     Zr3338   2.337       .  S
C3314      C3420   1.476       .  S
C3315      C3410   1.474       .  S
H3316      O3317   0.965       .  S
O3317     Zr3336   2.338       .  S
O3317     Zr3338   2.332       .  S
H3318      O3319   0.965       .  S
O3319     Zr3339   2.340       .  S
O3320     Zr3336   2.439       .  S
O3320      C3343   1.293       .  A
O3321     Zr3337   2.442       .  S
O3321      C3344   1.294       .  A
O3322     Zr3338   2.427       .  S
O3322      C3345   1.290       .  A
O3323     Zr3339   2.431       .  S
O3323      C3346   1.292       .  A
O3324     Zr3339   2.419       .  S
O3324      C3347   1.289       .  A
O3325     Zr3338   2.419       .  S
O3325      C3348   1.289       .  A
O3326     Zr3340   2.449   1_565  S
O3326      C3349   1.295       .  A
O3327      C3350   1.291       .  A
O3328     Zr3338   2.421       .  S
O3328      C3349   1.289       .  A
O3329     Zr3339   2.430       .  S
O3329      C3350   1.291       .  A
O3330     Zr3336   2.437       .  S
O3330      C3345   1.293       .  A
O3331     Zr3337   2.439   1_565  S
O3331      C3348   1.293       .  A
O3332      C3347   1.292       .  A
O3333      C3346   1.290       .  A
O3334     Zr3340   2.438   1_565  S
O3334      C3343   1.293       .  A
O3335     Zr3340   2.439       .  S
O3335      C3344   1.293       .  A
Zr3336     O3342   2.335       .  S
Zr3337     O3352   2.341   1_545  S
Zr3338     O3342   2.335       .  S
Zr3338     O3352   2.338       .  S
Zr3339     O3341   2.331       .  S
Zr3339     O3354   2.337       .  S
Zr3340     O3342   2.333   1_545  S
Zr3340     O3352   2.340   1_545  S
C3345      C3483   1.480       .  S
C3346      C3473   1.478       .  S
C3347      C3453   1.475       .  S
C3348      C3463   1.478       .  S
C3349      C3430   1.479       .  S
C3350      C3440   1.474       .  S
H3351      O3352   0.966       .  S
H3353      O3354   0.966       .  S
O3355     Zr3391   2.448       .  S
O3355      C3366   1.295       .  A
O3356     Zr3390   2.446       .  S
O3356      C3367   1.295       .  A
O3357      C3368   1.294       .  A
O3358     Zr3363   2.418       .  S
O3358      C3369   1.289       .  A
O3359     Zr3393   2.426       .  S
O3359      C3369   1.291       .  A
O3360     Zr3392   2.427       .  S
O3360      C3368   1.291       .  A
O3361     Zr3363   2.432       .  S
O3361      C3367   1.291       .  A
O3362     Zr3363   2.430       .  S
O3362      C3366   1.291   1_556  A
Zr3363     O3364   2.334       .  S
Zr3363     O3373   2.340       .  S
O3364     Zr3390   2.333       .  S
O3364     Zr3393   2.336       .  S
O3365     Zr3392   2.337       .  S
C3368      C3503   1.482       .  S
C3369      C3513   1.474       .  S
H3370      O3371   0.965       .  S
O3371     Zr3392   2.338       .  S
H3372      O3373   0.966       .  S
O3373     Zr3391   2.340   1_556  S
O3373     Zr3393   2.340       .  S
O3374     Zr3390   2.442   1_554  S
O3374      C3397   1.294       .  A
O3375     Zr3391   2.444       .  S
O3375      C3398   1.294       .  A
O3376     Zr3392   2.424       .  S
O3376      C3399   1.290       .  A
O3377     Zr3393   2.432       .  S
O3377      C3400   1.291       .  A
O3378     Zr3393   2.423       .  S
O3378      C3401   1.290       .  A
O3379     Zr3392   2.428       .  S
O3379      C3402   1.291       .  A
O3380      C3403   1.293       .  A
O3381     Zr3394   2.429   1_556  S
O3381      C3404   1.291       .  A
O3382     Zr3392   2.425       .  S
O3382      C3403   1.290       .  A
O3383     Zr3393   2.427       .  S
O3383      C3404   1.291       .  A
O3384      C3399   1.294       .  A
O3385      C3402   1.292       .  A
O3386     Zr3391   2.440   1_556  S
O3386      C3401   1.293       .  A
O3387     Zr3390   2.447       .  S
O3387      C3400   1.294       .  A
O3388     Zr3394   2.429       .  S
O3388      C3397   1.291       .  A
O3389     Zr3394   2.439       .  S
O3389      C3398   1.293       .  A
Zr3390     O3408   2.339       .  S
Zr3391     O3395   2.339   1_554  S
Zr3392     O3396   2.333       .  S
Zr3392     O3406   2.337       .  S
Zr3393     O3395   2.337       .  S
Zr3393     O3408   2.336       .  S
Zr3394     O3395   2.336   1_554  S
Zr3394     O3408   2.343   1_554  S
C3399      C3423   1.476       .  S
C3400      C3433   1.481       .  S
C3401      C3443   1.475       .  S
C3402      C3413   1.476       .  S
C3403      C3493   1.479       .  S
C3404      C3523   1.478       .  S
H3405      O3406   0.966       .  S
H3407      O3408   0.966       .  S
C3409      C3410   1.405       .  A
C3409      C3414   1.395       .  A
C3409      H3415   1.083       .  S
C3410      C3411   1.404       .  A
C3411      C3412   1.392       .  A
C3411      H3416   1.083       .  S
C3412      C3413   1.405       .  A
C3412      H3417   1.083       .  S
C3413      C3414   1.406       .  A
C3414      H3418   1.083       .  S
C3419      C3420   1.404       .  A
C3419      C3424   1.395       .  A
C3419      H3425   1.083       .  S
C3420      C3421   1.406       .  A
C3421      C3422   1.396       .  A
C3421      H3426   1.083       .  S
C3422      C3423   1.406       .  A
C3422      H3427   1.083       .  S
C3423      C3424   1.404       .  A
C3424      H3428   1.083       .  S
C3429      C3430   1.404       .  A
C3429      C3434   1.397       .  A
C3429      H3435   1.083       .  S
C3430      C3431   1.407       .  A
C3431      C3432   1.398       .  A
C3431      H3436   1.083       .  S
C3432      C3433   1.406       .  A
C3432      H3437   1.083       .  S
C3433      C3434   1.405       .  A
C3434      H3438   1.083       .  S
C3439      C3440   1.406       .  A
C3439      C3444   1.396       .  A
C3439      H3445   1.083       .  S
C3440      C3441   1.404       .  A
C3441      C3442   1.393       .  A
C3441      H3446   1.083       .  S
C3442      C3443   1.405       .  A
C3442      H3447   1.083       .  S
C3443      C3444   1.404       .  A
C3444      H3448   1.083       .  S
C3449      C3450   1.408       .  A
C3449      C3454   1.396       .  A
C3449      H3455   1.083       .  S
C3450      C3451   1.403       .  A
C3451      C3452   1.392       .  A
C3451      H3456   1.083       .  S
C3452      C3453   1.404       .  A
C3452      H3457   1.083       .  S
C3453      C3454   1.406       .  A
C3454      H3458   1.083       .  S
C3459      C3460   1.406       .  A
C3459      C3464   1.395       .  A
C3459      H3465   1.083       .  S
C3460      C3461   1.405       .  A
C3461      C3462   1.395       .  A
C3461      H3466   1.083       .  S
C3462      C3463   1.404       .  A
C3462      H3467   1.083       .  S
C3463      C3464   1.407       .  A
C3464      H3468   1.083       .  S
C3469      C3470   1.406       .  A
C3469      C3474   1.393       .  A
C3469      H3475   1.083       .  S
C3470      C3471   1.405       .  A
C3471      C3472   1.396       .  A
C3471      H3476   1.083       .  S
C3472      C3473   1.407       .  A
C3472      H3477   1.083       .  S
C3473      C3474   1.404       .  A
C3474      H3478   1.083       .  S
C3479      C3480   1.406       .  A
C3479      C3484   1.394       .  A
C3479      H3485   1.083       .  S
C3480      C3481   1.407       .  A
C3481      C3482   1.398       .  A
C3481      H3486   1.083       .  S
C3482      C3483   1.407       .  A
C3482      H3487   1.083       .  S
C3483      C3484   1.404       .  A
C3484      H3488   1.083       .  S
C3489      C3490   1.407       .  A
C3489      C3494   1.399       .  A
C3489      H3495   1.083       .  S
C3490      C3491   1.405       .  A
C3491      C3492   1.392       .  A
C3491      H3496   1.083       .  S
C3492      C3493   1.403       .  A
C3492      H3497   1.083       .  S
C3493      C3494   1.408       .  A
C3494      H3498   1.083       .  S
C3499      C3500   1.406       .  A
C3499      C3504   1.396       .  A
C3499      H3505   1.083       .  S
C3500      C3501   1.406       .  A
C3501      C3502   1.396       .  A
C3501      H3506   1.083       .  S
C3502      C3503   1.405       .  A
C3502      H3507   1.083       .  S
C3503      C3504   1.408       .  A
C3504      H3508   1.083       .  S
C3509      C3510   1.407       .  A
C3509      C3514   1.395       .  A
C3509      H3515   1.083       .  S
C3510      C3511   1.404       .  A
C3511      C3512   1.391       .  A
C3511      H3516   1.083       .  S
C3512      C3513   1.406       .  A
C3512      H3517   1.083       .  S
C3513      C3514   1.404       .  A
C3514      H3518   1.083       .  S
C3519      C3520   1.405       .  A
C3519      C3524   1.397       .  A
C3519      H3525   1.083       .  S
C3520      C3521   1.406       .  A
C3521      C3522   1.392       .  A
C3521      H3526   1.083       .  S
C3522      C3523   1.404       .  A
C3522      H3527   1.083       .  S
C3523      C3524   1.407       .  A
C3524      H3528   1.083       .  S
C3529      C3530   1.405       .  A
C3529      C3534   1.395       .  A
C3529      H3535   1.083       .  S
C3530      C3531   1.407       .  A
C3531      C3532   1.399       .  A
C3531      H3536   1.083       .  S
C3532      C3533   1.407       .  A
C3532      H3537   1.083       .  S
C3533      C3534   1.406       .  A
C3534      H3538   1.083       .  S
C3539      C3540   1.406       .  A
C3539      C3544   1.398       .  A
C3539      H3545   1.083       .  S
C3540      C3541   1.407       .  A
C3541      C3542   1.396       .  A
C3541      H3546   1.083       .  S
C3542      C3543   1.406       .  A
C3542      H3547   1.083       .  S
C3543      C3544   1.407       .  A
C3544      H3548   1.083       .  S
C3549      C3550   1.408       .  A
C3549      C3554   1.397       .  A
C3549      H3555   1.083       .  S
C3550      C3551   1.405       .  A
C3551      C3552   1.396       .  A
C3551      H3556   1.083       .  S
C3552      C3553   1.407       .  A
C3552      H3557   1.083       .  S
C3553      C3554   1.405       .  A
C3554      H3558   1.083       .  S
C3559      C3560   1.407       .  A
C3559      C3564   1.400       .  A
C3559      H3565   1.083       .  S
C3560      C3561   1.405       .  A
C3561      C3562   1.395       .  A
C3561      H3566   1.083       .  S
C3562      C3563   1.406       .  A
C3562      H3567   1.083       .  S
C3563      C3564   1.406       .  A
C3564      H3568   1.083       .  S
C3569      C3570   1.406       .  A
C3569      C3574   1.397       .  A
C3569      H3575   1.083       .  S
C3570      C3571   1.409       .  A
C3571      C3572   1.403       .  A
C3571      H3576   1.083       .  S
C3572      C3573   1.409       .  A
C3572      H3577   1.083       .  S
C3573      C3574   1.406       .  A
C3574      H3578   1.083       .  S
C3579      C3580   1.404       .  A
C3579      C3584   1.393       .  A
C3579      H3585   1.083       .  S
C3580      C3581   1.408       .  A
C3581      C3582   1.399       .  A
C3581      H3586   1.083       .  S
C3582      C3583   1.408       .  A
C3582      H3587   1.083       .  S
C3583      C3584   1.405       .  A
C3584      H3588   1.083       .  S
C3589      C3590   1.403       .  A
C3589      C3594   1.393       .  A
C3589      H3595   1.083       .  S
C3590      C3591   1.408       .  A
C3591      C3592   1.397       .  A
C3591      H3596   1.083       .  S
C3592      C3593   1.405       .  A
C3592      H3597   1.083       .  S
C3593      C3594   1.407       .  A
C3594      H3598   1.083       .  S
C3599      C3600   1.405       .  A
C3599      C3604   1.396       .  A
C3599      H3605   1.083       .  S
C3600      C3601   1.407       .  A
C3601      C3602   1.398       .  A
C3601      H3606   1.083       .  S
C3602      C3603   1.406       .  A
C3602      H3607   1.083       .  S
C3603      C3604   1.408       .  A
C3604      H3608   1.083       .  S
C3609      C3610   1.407       .  A
C3609      C3614   1.394       .  A
C3609      H3615   1.083       .  S
C3611      C3612   1.395       .  A
C3611      H3616   1.083       .  S
C3612      H3617   1.083       .  S
C3613      C3614   1.404       .  A
C3614      H3618   1.083       .  S
C3619      C3620   1.405       .  A
C3619      C3624   1.394       .  A
C3619      H3625   1.083       .  S
C3621      C3622   1.394       .  A
C3621      H3626   1.083   1_455  S
C3622      H3627   1.083       .  S
C3623      C3624   1.406       .  A
C3624      H3628   1.083       .  S
C3629      C3630   1.406       .  A
C3629      C3634   1.397       .  A
C3629      H3635   1.083       .  S
C3631      C3632   1.397       .  A
C3631      H3636   1.083       .  S
C3632      H3637   1.083       .  S
C3633      C3634   1.407       .  A
C3634      H3638   1.083       .  S
C3639      C3640   1.405       .  A
C3639      C3644   1.394       .  A
C3639      H3645   1.083       .  S
C3641      C3642   1.395       .  A
C3641      H3646   1.083       .  S
C3642      H3647   1.083       .  S
C3643      C3644   1.406       .  A
C3644      H3648   1.083       .  S
