geometry optimzed in LAMMPS
_audit_creation_date              2020-11-30 
_audit_creation_method            'lammps2cif' 
_symmetry_space_group_name_H-M    'P1' 
_symmetry_Int_Tables_number       1 
_symmetry_cell_setting            triclinic 
loop_ 
_symmetry_equiv_pos_as_xyz 
  x,y,z 
_cell_length_a                    29.98404785 
_cell_length_b                    29.80289150823405 
_cell_length_c                    29.826694113965377 
_cell_angle_alpha                 89.7608921521483 
_cell_angle_beta                  89.8628370494252 
_cell_angle_gamma                 89.30551549655645 
loop_ 
_atom_site_label 
_atom_site_type_symbol 
_atom_site_fract_x 
_atom_site_fract_y 
_atom_site_fract_z 
_atom_site_charge 
C1          C  0.34003441  0.35755382  0.18096734    -0.02600
C2          C  0.32647055  0.11587638  0.38823513    -0.02600
C3          C  0.10094377  0.11233369  0.16650451    -0.02600
C4          C  0.10052065  0.34801335  0.40368233    -0.02600
C5          C  0.32159066  0.11504912  0.66785110    -0.02600
C6          C  0.09121971  0.12472734  0.89845857    -0.02600
C7          C  0.09126658  0.34287494  0.66969889    -0.02600
C8          C  0.30957875  0.35425905  0.91166708    -0.02600
N9          N  0.39916464  0.43231673  0.94746197    -0.06300
N10         N  0.38245578  0.40478130  0.91668250    -0.58400
N11         N  0.37619831  0.53693423  0.97632304    -0.05900
N12         N  0.34425666  0.56594985  0.96426588    -0.60500
N13         N  0.40733766  0.53592337  0.94485510    -0.05500
N14         N  0.39712338  0.56438679  0.91186887    -0.58400
N15         N  0.37205210  0.43280598  0.98249537    -0.05200
N16         N  0.33833010  0.40482631  0.97604638    -0.60900
C17         C  0.34537653  0.38557479  0.93525704     0.95900
C18         C  0.35753500  0.58343141  0.92391778     0.95700
N19         N  0.41103345  0.54005147  0.11930003    -0.06500
N20         N  0.39985588  0.57066662  0.15034748    -0.59000
N21         N  0.37944624  0.43604089  0.09370719    -0.04600
N22         N  0.34815796  0.40822769  0.10857636    -0.60200
N23         N  0.41382523  0.43419495  0.12132944    -0.06500
N24         N  0.40655325  0.40444548  0.15375388    -0.59200
N25         N  0.38101256  0.54141828  0.08695982    -0.04200
N26         N  0.35061858  0.57326225  0.09519231    -0.60300
Mn27       Mn  0.37695557  0.48675346  0.03505879     1.18400
C28         C  0.36160992  0.59179237  0.13520922     0.98000
C29         C  0.36580787  0.38676803  0.14525288     0.98700
N30         N  0.51841256  0.53106998  0.94153288    -0.06500
N31         N  0.53140249  0.56081051  0.91073980    -0.62800
N32         N  0.54497130  0.42567124  0.96905213    -0.05300
N33         N  0.57550563  0.39621067  0.95418914    -0.63500
N34         N  0.51107791  0.42611619  0.94074850    -0.06000
N35         N  0.51826952  0.39682256  0.90769069    -0.63100
N36         N  0.54841994  0.53030882  0.97373645    -0.04900
N37         N  0.58036660  0.55963542  0.96570077    -0.63800
Mn38       Mn  0.45908175  0.48129804  0.94320713     1.10700
C39         C  0.56941651  0.58032393  0.92681216     0.99200
C40         C  0.55869417  0.37716086  0.91603055     0.99300
N41         N  0.52572303  0.43265000  0.11759025    -0.06000
N42         N  0.54321117  0.40758862  0.15065077    -0.61400
N43         N  0.55244306  0.53339811  0.08240595    -0.05300
N44         N  0.58432254  0.56271710  0.09232533    -0.58100
N45         N  0.52074017  0.53657479  0.11311689    -0.06600
N46         N  0.53044768  0.56754914  0.14332747    -0.61000
N47         N  0.55073111  0.42727768  0.08146867    -0.05600
N48         N  0.58282302  0.39701796  0.08900896    -0.58100
Mn49       Mn  0.46770266  0.48569936  0.11824492     1.20200
Mn50       Mn  0.54931001  0.47866488  0.02665279     1.10100
Cl51       Cl  0.46321371  0.48273361  0.03072371    -0.86100
C52         C  0.57779674  0.38325388  0.13212751     0.96200
C53         C  0.57040563  0.58419857  0.13072641     0.96000
C54         C  0.33308998  0.62998696  0.16059639    -0.02600
C55         C  0.10764346  0.86097981  0.17451315    -0.02600
C56         C  0.08754492  0.61657816  0.39410734    -0.02600
C57         C  0.32506651  0.84881091  0.39660888    -0.02600
N58         N  0.40468256  0.03638279  0.61802307    -0.06300
N59         N  0.39315360  0.06606868  0.64974638    -0.58400
N60         N  0.37508126  0.93098099  0.58376527    -0.05900
N61         N  0.34420609  0.90019196  0.59117727    -0.60500
N62         N  0.40550497  0.92987040  0.61577854    -0.05500
N63         N  0.39532231  0.89765288  0.64514010    -0.58400
N64         N  0.37315965  0.03519946  0.58706869    -0.05200
N65         N  0.34001991  0.06280118  0.59898230    -0.60900
C66         C  0.35303643  0.08439604  0.63691231     0.95900
C67         C  0.35678920  0.87904602  0.62959277     0.95700
N68         N  0.40695728  0.92856272  0.44369929    -0.06500
N69         N  0.39567794  0.89873243  0.41235889    -0.59000
N70         N  0.37315459  0.03577470  0.47302573    -0.04600
N71         N  0.34132346  0.06500621  0.46028266    -0.60200
N72         N  0.40398662  0.03349833  0.44146547    -0.06500
N73         N  0.39276347  0.06018274  0.40746121    -0.59200
N74         N  0.37640364  0.92893006  0.47573708    -0.04200
N75         N  0.34535065  0.89864532  0.46673164    -0.60300
Mn76       Mn  0.37414893  0.98336390  0.52991275     1.18400
C77         C  0.35669468  0.87954109  0.42677400     0.98000
C78         C  0.35379663  0.08082050  0.41882552     0.98700
N79         N  0.51519165  0.92947601  0.61846010    -0.06500
N80         N  0.52432727  0.89790081  0.64913168    -0.62800
N81         N  0.54582311  0.03741569  0.58519195    -0.05300
N82         N  0.57617168  0.06886704  0.59265340    -0.63500
N83         N  0.51748575  0.03546359  0.61921980    -0.06000
N84         N  0.53028361  0.06428869  0.65099222    -0.63100
N85         N  0.54798594  0.93173559  0.58897564    -0.04900
N86         N  0.58042425  0.90314761  0.60090487    -0.63800
Mn87       Mn  0.46060161  0.98292363  0.61851389     1.10700
C88         C  0.56577895  0.88150378  0.63869123     0.99200
C89         C  0.56665485  0.08629693  0.63390014     0.99300
N90         N  0.51383485  0.03646250  0.44442450    -0.06000
N91         N  0.52420714  0.06571090  0.41234061    -0.61400
N92         N  0.54590869  0.93015155  0.47693954    -0.05300
N93         N  0.57777977  0.90047543  0.46780319    -0.58100
N94         N  0.51867812  0.93318282  0.44239668    -0.06600
N95         N  0.53446729  0.90785097  0.40889617    -0.61000
N96         N  0.54658590  0.03397476  0.47394335    -0.05600
N97         N  0.57998348  0.05980512  0.46039759    -0.58100
Mn98       Mn  0.46072290  0.98292679  0.44281095     1.20200
Mn99       Mn  0.54667168  0.98323114  0.53137470     1.10100
Cl100      Cl  0.46051650  0.98364228  0.53074155    -0.86100
C101        C  0.56527880  0.08172961  0.42293008     0.96200
C102        C  0.57066923  0.88521640  0.42566706     0.96000
C103        C  0.58305158  0.34199015  0.88298068    -0.02600
C104        C  0.81578470  0.34899990  0.66506506    -0.02600
C105        C  0.59611119  0.12312536  0.65862324    -0.02600
C106        C  0.83111337  0.11400281  0.89139251    -0.02600
C107        C  0.33076201  0.61914535  0.89557808    -0.02600
C108        C  0.32814352  0.84291987  0.65438257    -0.02600
C109        C  0.10565818  0.61273092  0.65765159    -0.02600
C110        C  0.10434194  0.85101596  0.89823715    -0.02600
C111        C  0.60523186  0.85318595  0.40033297    -0.02600
C112        C  0.81346307  0.61021369  0.40518214    -0.02600
C113        C  0.59832350  0.61865344  0.15901390    -0.02600
C114        C  0.84178065  0.83409772  0.16472913    -0.02600
C115        C  0.60295536  0.61211706  0.90111642    -0.02600
C116        C  0.82690589  0.62303162  0.66472007    -0.02600
C117        C  0.59218945  0.84183011  0.66357892    -0.02600
C118        C  0.83158624  0.84376633  0.90563382    -0.02600
N119        N  0.02516848  0.90048172  0.08926896    -0.06300
N120        N  0.05764893  0.87182072  0.10141230    -0.58400
N121        N  0.91766563  0.92171126  0.12107899    -0.05900
N122        N  0.88980466  0.90711575  0.15286450    -0.60500
N123        N  0.92107037  0.89110548  0.08946282    -0.05500
N124        N  0.89564049  0.85628880  0.09943351    -0.58400
N125        N  0.02092752  0.93150415  0.12056061    -0.05200
N126        N  0.04974940  0.92390470  0.15365338    -0.60900
C127        C  0.07306336  0.88626999  0.14219968     0.95900
C128        C  0.87458814  0.86639672  0.13836433     0.95700
N129        N  0.91001764  0.06772475  0.09033815    -0.06500
N130        N  0.88174297  0.09946053  0.10471137    -0.59000
N131        N  0.01380642  0.04006190  0.11941107    -0.04600
N132        N  0.04376750  0.04956961  0.15066607    -0.60200
N133        N  0.01497366  0.07078930  0.08732274    -0.06500
N134        N  0.04664061  0.10081878  0.09657609    -0.59200
N135        N  0.90854951  0.03303688  0.11801525    -0.04200
N136        N  0.87752406  0.03997593  0.14922335    -0.60300
Mn137      Mn  0.96461638  0.98185194  0.11990067     1.18400
C138        C  0.86080797  0.08190936  0.14161216     0.98000
C139        C  0.06482619  0.08752797  0.13669158     0.98700
N140        N  0.91615128  0.89357380  0.97975339    -0.06500
N141        N  0.88592035  0.86197728  0.97184107    -0.62800
N142        N  0.01902395  0.92865151  0.94474859    -0.05300
N143        N  0.04824231  0.91797833  0.91249401    -0.63500
N144        N  0.02120206  0.89827841  0.97686273    -0.06000
N145        N  0.05136209  0.86726550  0.96612247    -0.63100
N146        N  0.91309545  0.92519721  0.94857979    -0.04900
N147        N  0.88057859  0.91506704  0.91980176    -0.63800
Mn148      Mn  0.97130870  0.89556628  0.03362208     1.10700
C149        C  0.86280158  0.87551270  0.93451851     0.99200
C150        C  0.06958298  0.87961786  0.92660524     0.99300
N151        N  0.01105746  0.07210227  0.97575418    -0.06000
N152        N  0.03717268  0.10592095  0.96423698    -0.61400
N153        N  0.90996694  0.03598405  0.94634450    -0.05300
N154        N  0.88149815  0.04546275  0.91336560    -0.58100
N155        N  0.90807413  0.06787715  0.97702548    -0.06600
N156        N  0.87843102  0.09918574  0.96423731    -0.61000
N157        N  0.01517656  0.03953473  0.94606002    -0.05600
N158        N  0.04620797  0.05064639  0.91581629    -0.58100
Mn159      Mn  0.96086891  0.07029861  0.03273279     1.20200
Mn160      Mn  0.96443016  0.98226432  0.94590430     1.10100
Cl161      Cl  0.96521476  0.98252184  0.03298411    -0.86100
C162        C  0.06143365  0.09201765  0.92813109     0.96200
C163        C  0.86071264  0.08468744  0.92469903     0.96000
C164        C  0.59536348  0.10698597  0.38788779    -0.02600
C165        C  0.82465326  0.10723789  0.17153595    -0.02600
C166        C  0.61206942  0.35014214  0.15680544    -0.02600
C167        C  0.83790061  0.33947765  0.39815731    -0.02600
N168        N  0.01590952  0.39297521  0.48140788    -0.06300
N169        N  0.02756496  0.36344681  0.44980077    -0.58400
N170        N  0.04465397  0.42260677  0.58730187    -0.05900
N171        N  0.07523932  0.41164971  0.61777073    -0.60500
N172        N  0.01290308  0.39219950  0.58811592    -0.05500
N173        N  0.02179600  0.36123308  0.61944797    -0.58400
N174        N  0.04702114  0.42352978  0.48394494    -0.05200
N175        N  0.08038111  0.41342614  0.45676054    -0.60900
C176        C  0.06808794  0.37714765  0.43349907     0.95900
C177        C  0.06044604  0.37406867  0.63940630     0.95700
N178        N  0.01865008  0.56582431  0.58286379    -0.06500
N179        N  0.03306932  0.59866167  0.60891394    -0.59000
N180        N  0.04550736  0.53395492  0.47806416    -0.04600
N181        N  0.07567832  0.54505028  0.44667885    -0.60200
N182        N  0.01359746  0.56504738  0.47889819    -0.06500
N183        N  0.02258366  0.59718953  0.44923942    -0.59200
N184        N  0.04864807  0.53317112  0.58346481    -0.04200
N185        N  0.08248999  0.54366354  0.61017155    -0.60300
Mn186      Mn  0.04667744  0.47816180  0.53330192     1.18400
C187        C  0.07224747  0.58460284  0.62764038     0.98000
C188        C  0.06096148  0.58481729  0.42800727     0.98700
N189        N  0.90108576  0.39083222  0.58433776    -0.06500
N190        N  0.88427541  0.35711909  0.60844751    -0.62800
N191        N  0.87467249  0.41998899  0.48395356    -0.05300
N192        N  0.84347196  0.40544325  0.45602411    -0.63500
N193        N  0.90893983  0.39193791  0.48173321    -0.06000
N194        N  0.90232479  0.36021922  0.45142834    -0.63100
N195        N  0.87486610  0.42639569  0.58908147    -0.04900
N196        N  0.84322042  0.41819137  0.61927149    -0.63800
Mn197      Mn  0.95998491  0.39152002  0.53400405     1.10700
C198        C  0.84955160  0.37486567  0.63285547     0.99200
C199        C  0.86133005  0.36895688  0.43448778     0.99300
N200        N  0.90082754  0.56581624  0.48181343    -0.06000
N201        N  0.88596688  0.59807740  0.45408350    -0.61400
N202        N  0.87286781  0.53814324  0.58570260    -0.05300
N203        N  0.83996648  0.55283345  0.61246919    -0.58100
N204        N  0.90659269  0.56631959  0.58785947    -0.06600
N205        N  0.89765014  0.59847463  0.61775193    -0.61000
N206        N  0.87243112  0.53217404  0.48095697    -0.05600
N207        N  0.83956072  0.54077429  0.45204519    -0.58100
Mn208      Mn  0.95981449  0.56610278  0.53301339     1.20200
Mn209      Mn  0.87343278  0.47921778  0.53496958     1.10100
Cl210      Cl  0.95991507  0.47893919  0.53396040    -0.86100
C211        C  0.84815887  0.58178317  0.43414568     0.96200
C212        C  0.85558191  0.59049579  0.63320901     0.96000
C213        C  0.81820077  0.37043345  0.35768850     0.01200
C214        C  0.78841776  0.40816622  0.36113014     0.04000
C215        C  0.75222520  0.41342286  0.33000762    -0.12000
C216        C  0.74638456  0.38255799  0.29430899     0.23300
C217        C  0.78066613  0.35033185  0.29054575    -0.12600
C218        C  0.82064642  0.35665926  0.31286737     0.04700
C219        C  0.70938316  0.38618204  0.25903690     0.27100
C220        C  0.66384743  0.38213684  0.27030347    -0.13300
C221        C  0.63034427  0.38346223  0.23678977     0.05200
C222        C  0.64165085  0.37991431  0.19022712    -0.09300
C223        C  0.68476629  0.39594182  0.18014597     0.06100
C224        C  0.71879614  0.39681703  0.21348358    -0.13600
Br225      Br  0.77359278  0.29442079  0.26402960    -0.05700
Br226      Br  0.80653662  0.46187669  0.39057396    -0.00100
Br227      Br  0.56934026  0.39348870  0.25547462     0.00400
Br228      Br  0.77711661  0.41658697  0.19619297    -0.04000
Br229      Br  0.85551377  0.39765414  0.27729983     0.00500
Br230      Br  0.71213846  0.46216013  0.33783737    -0.03300
Br231      Br  0.64628042  0.37150046  0.33095298    -0.04200
Br232      Br  0.68928313  0.43917634  0.13301086    -0.00200
C233        C  0.80522241  0.14744978  0.14102069     0.01200
C234        C  0.77998702  0.14228450  0.10157528     0.04000
C235        C  0.75086947  0.17766623  0.08733871    -0.12000
C236        C  0.74834779  0.21976134  0.10961175     0.23300
C237        C  0.78587752  0.22848065  0.13711288    -0.12600
C238        C  0.81631118  0.19325552  0.14828384     0.04700
C239        C  0.70897549  0.25364731  0.10311276     0.27100
C240        C  0.71463363  0.29988294  0.09184422    -0.13300
C241        C  0.67902461  0.33198560  0.09734926     0.05200
C242        C  0.63886174  0.31987051  0.11940252    -0.09300
C243        C  0.62879113  0.27333991  0.11239129     0.06100
C244        C  0.66363284  0.24037402  0.10804381    -0.13600
Br245      Br  0.79980340  0.28758062  0.15760876    -0.05700
Br246      Br  0.79536106  0.09520155  0.05925808    -0.00100
Br247      Br  0.67339022  0.37499311  0.04924831     0.00400
Br248      Br  0.64756688  0.17758208  0.11116423    -0.04000
Br249      Br  0.87803894  0.20827247  0.15561452     0.00500
Br250      Br  0.72261658  0.17100825  0.03195285    -0.03300
Br251      Br  0.76707066  0.31851974  0.05971001    -0.04200
Br252      Br  0.56753595  0.25412776  0.10894386    -0.00200
C253        C  0.84308107  0.13099950  0.21599144     0.01200
C254        C  0.81236722  0.15691837  0.24308507     0.04000
C255        C  0.82641981  0.18206566  0.28010814    -0.12000
C256        C  0.87121845  0.18885089  0.28882045     0.23300
C257        C  0.90152915  0.15924312  0.26769684    -0.12600
C258        C  0.88831851  0.13014659  0.23229409     0.04700
C259        C  0.88398927  0.22670873  0.32041706     0.27100
C260        C  0.88964281  0.27126236  0.30473882    -0.13300
C261        C  0.89287718  0.30688870  0.33561170     0.05200
C262        C  0.87381011  0.30255515  0.37826768    -0.09300
C263        C  0.88455849  0.25914932  0.39613517     0.06100
C264        C  0.88657564  0.22082948  0.36740720    -0.13600
Br265      Br  0.95902374  0.15176899  0.29307010    -0.05700
Br266      Br  0.75057043  0.16596571  0.22895500    -0.00100
Br267      Br  0.93923473  0.34996747  0.32883298     0.00400
Br268      Br  0.89609127  0.16161551  0.39191957    -0.04000
Br269      Br  0.93464855  0.09007564  0.21068419     0.00500
Br270      Br  0.78419221  0.20229201  0.32365675    -0.03300
Br271      Br  0.88354141  0.28733831  0.24310323    -0.04200
Br272      Br  0.92211430  0.25615030  0.44771855    -0.00200
C273        C  0.56254337  0.13559675  0.35515794     0.01200
C274        C  0.55355382  0.18141350  0.36670314     0.04000
C275        C  0.55901946  0.21587217  0.33418342    -0.12000
C276        C  0.55978923  0.20570437  0.28787129     0.23300
C277        C  0.55215876  0.16035946  0.27615208    -0.12600
C278        C  0.55275086  0.12570166  0.30945182     0.04700
C279        C  0.56942560  0.24162873  0.25251206     0.27100
C280        C  0.53952306  0.27630559  0.24044802    -0.13300
C281        C  0.54824175  0.30554706  0.20389413     0.05200
C282        C  0.59314984  0.31283104  0.19002053    -0.09300
C283        C  0.62471177  0.28240009  0.20970112     0.06100
C284        C  0.61088719  0.24373337  0.23163296    -0.13600
Br285      Br  0.54128627  0.14505246  0.21436758    -0.05700
Br286      Br  0.54300851  0.19790872  0.42862264    -0.00100
Br287      Br  0.49693212  0.33016284  0.17505349     0.00400
Br288      Br  0.64338569  0.19211167  0.21704042    -0.04000
Br289      Br  0.51987768  0.07298074  0.29520773     0.00500
Br290      Br  0.57169563  0.27555439  0.35476779    -0.03300
Br291      Br  0.49386318  0.29317274  0.27969930    -0.04200
Br292      Br  0.68789742  0.28766705  0.20380298    -0.00200
C293        C  0.79748750  0.31405804  0.42151811     0.01200
C294        C  0.80302528  0.26983967  0.43825966     0.04000
C295        C  0.77189925  0.23710488  0.42833794    -0.12000
C296        C  0.72776405  0.25024223  0.41902382     0.23300
C297        C  0.71734498  0.29660550  0.41771717    -0.12600
C298        C  0.75199415  0.32875054  0.41988052     0.04700
C299        C  0.69190202  0.21623099  0.41479458     0.27100
C300        C  0.67410514  0.20850938  0.37300639    -0.13300
C301        C  0.65139860  0.16874446  0.36621232     0.05200
C302        C  0.62975540  0.14478245  0.40203101    -0.09300
C303        C  0.64154834  0.15898627  0.44581485     0.06100
C304        C  0.67710811  0.18922118  0.45061110    -0.13600
Br305      Br  0.65563332  0.31443604  0.42590975    -0.05700
Br306      Br  0.82932954  0.26068966  0.49618374    -0.00100
Br307      Br  0.65684155  0.14654068  0.30760527     0.00400
Br308      Br  0.71138572  0.18451771  0.50253669    -0.04000
Br309      Br  0.73564821  0.38660564  0.44417054     0.00500
Br310      Br  0.79091002  0.17503480  0.43235622    -0.03300
Br311      Br  0.68296758  0.25035608  0.32419850    -0.04200
Br312      Br  0.61414234  0.13862603  0.50037080    -0.00200
C313        C  0.62723116  0.06937851  0.36737926     0.01200
C314        C  0.61447162  0.03958557  0.33417230     0.04000
C315        C  0.64411479  0.02972291  0.29826657    -0.12000
C316        C  0.68900753  0.04640954  0.29874033     0.23300
C317        C  0.70419960  0.06155942  0.34144829    -0.12600
C318        C  0.67365085  0.06678900  0.37704598     0.04700
C319        C  0.72042050  0.04911026  0.25799312     0.27100
C320        C  0.76454314  0.03241278  0.26092663    -0.13300
C321        C  0.79798659  0.04467001  0.22951094     0.05200
C322        C  0.78792379  0.07256256  0.19123562    -0.09300
C323        C  0.74096039  0.07462839  0.18165790     0.06100
C324        C  0.70840858  0.06813669  0.21603445    -0.13600
Br325      Br  0.76192112  0.08830037  0.35038843    -0.05700
Br326      Br  0.57171790  0.99576563  0.35241909    -0.00100
Br327      Br  0.85640414  0.02052363  0.24199103     0.00400
Br328      Br  0.64741116  0.08322228  0.20222174    -0.04000
Br329      Br  0.69559272  0.06823448  0.43779575     0.00500
Br330      Br  0.62018368  0.99194051  0.25278318    -0.03300
Br331      Br  0.77824725  0.98883126  0.30655427    -0.04200
Br332      Br  0.71851427  0.06058654  0.12334028    -0.00200
C333        C  0.61980434  0.85492530  0.70804920     0.01200
C334        C  0.61705152  0.89587788  0.73301500     0.04000
C335        C  0.64747906  0.90439711  0.76886756    -0.12000
C336        C  0.67874968  0.87151592  0.78391667     0.23300
C337        C  0.67480985  0.82872231  0.76607405    -0.12600
C338        C  0.64806274  0.82117821  0.72812408     0.04700
C339        C  0.71729821  0.87953932  0.81625009     0.27100
C340        C  0.76153837  0.88034699  0.80004915    -0.13300
C341        C  0.79854280  0.88093246  0.82974131     0.05200
C342        C  0.79384238  0.87164789  0.87641285    -0.09300
C343        C  0.74952844  0.88319372  0.89207426     0.06100
C344        C  0.71175556  0.88345169  0.86295901    -0.13600
Br345      Br  0.70441522  0.77935510  0.79669858    -0.05700
Br346      Br  0.56864098  0.93850424  0.72649399    -0.00100
Br347      Br  0.84186211  0.92434630  0.81254256     0.00400
Br348      Br  0.65272812  0.89313619  0.88743774    -0.04000
Br349      Br  0.65303306  0.76304618  0.70393577     0.00500
Br350      Br  0.64186121  0.95984105  0.79989957    -0.03300
Br351      Br  0.77182689  0.88669220  0.73664389    -0.04200
Br352      Br  0.74060550  0.92053912  0.94363676    -0.00200
C353        C  0.79279740  0.65377466  0.63331681     0.01200
C354        C  0.80480556  0.67934129  0.59422962     0.04000
C355        C  0.77666540  0.71673530  0.57947063    -0.12000
C356        C  0.72928742  0.72022265  0.59221415     0.23300
C357        C  0.71698168  0.68281405  0.61779436    -0.12600
C358        C  0.74898414  0.66629766  0.64733691     0.04700
C359        C  0.69669846  0.76228343  0.59298834     0.27100
C360        C  0.70864524  0.80204782  0.61663483    -0.13300
C361        C  0.67564698  0.83431099  0.63056130     0.05200
C362        C  0.62925153  0.82473782  0.62789768    -0.09300
C363        C  0.61971649  0.79740200  0.59144064     0.06100
C364        C  0.65026835  0.76305034  0.57831599    -0.13600
Br365      Br  0.65719236  0.66621323  0.63141842    -0.05700
Br366      Br  0.86048751  0.66890556  0.56214704    -0.00100
Br367      Br  0.69369520  0.89410202  0.64564000     0.00400
Br368      Br  0.61867796  0.71869218  0.54586349    -0.04000
Br369      Br  0.74317347  0.70303778  0.69814348     0.00500
Br370      Br  0.81074997  0.76076872  0.54859690    -0.03300
Br371      Br  0.76795630  0.81087268  0.63816945    -0.04200
Br372      Br  0.57548006  0.81842161  0.54862425    -0.00200
C373        C  0.86433106  0.81480039  0.87339950     0.01200
C374        C  0.88396117  0.82954296  0.83338443     0.04000
C375        C  0.89081419  0.79831700  0.79804381    -0.12000
C376        C  0.88646606  0.75089981  0.80633033     0.23300
C377        C  0.88645664  0.73872144  0.85244842    -0.12600
C378        C  0.88365048  0.77300889  0.88513593     0.04700
C379        C  0.87882345  0.71700371  0.76842915     0.27100
C380        C  0.84664210  0.72737687  0.73597880    -0.13300
C381        C  0.84560414  0.70350759  0.69551951     0.05200
C382        C  0.85615339  0.65687897  0.69467040    -0.09300
C383        C  0.88842244  0.64417048  0.72810185     0.06100
C384        C  0.90229955  0.67542267  0.76197542    -0.13600
Br385      Br  0.88545079  0.67771705  0.87360743    -0.05700
Br386      Br  0.93108568  0.87140970  0.84116285    -0.00100
Br387      Br  0.87022837  0.74028568  0.64941280     0.00400
Br388      Br  0.95615225  0.66214073  0.79482337    -0.04000
Br389      Br  0.92838416  0.77345002  0.93081152     0.00500
Br390      Br  0.90638990  0.82352519  0.74061115    -0.03300
Br391      Br  0.80612332  0.77692930  0.74399481    -0.04200
Br392      Br  0.91931770  0.58751601  0.72608624    -0.00200
C393        C  0.58392391  0.64043035  0.85921178     0.01200
C394        C  0.61595118  0.66101899  0.83036667     0.04000
C395        C  0.60498068  0.67934622  0.78897539    -0.12000
C396        C  0.56151995  0.69010469  0.77789666     0.23300
C397        C  0.52848108  0.66965410  0.80419646    -0.12600
C398        C  0.53833657  0.64726946  0.84536439     0.04700
C399        C  0.55274196  0.72758585  0.74387597     0.27100
C400        C  0.54592743  0.77210694  0.75833707    -0.13300
C401        C  0.54174636  0.80774172  0.72712659     0.05200
C402        C  0.55808551  0.80360300  0.68235400    -0.09300
C403        C  0.55471776  0.75825700  0.66653466     0.06100
C404        C  0.55298105  0.72081910  0.69703553    -0.13600
Br405      Br  0.47622798  0.65261458  0.77426324    -0.05700
Br406      Br  0.67670951  0.66957346  0.84490114    -0.00100
Br407      Br  0.50099274  0.85500681  0.74267661     0.00400
Br408      Br  0.54830879  0.66033026  0.67492175    -0.04000
Br409      Br  0.48651534  0.63859006  0.88283891     0.00500
Br410      Br  0.64509219  0.66525307  0.74213440    -0.03300
Br411      Br  0.54646377  0.78662020  0.82083665    -0.04200
Br412      Br  0.52578637  0.74776723  0.61084200    -0.00200
C413        C  0.79972148  0.59254759  0.70015341     0.01200
C414        C  0.81336707  0.55479227  0.72802198     0.04000
C415        C  0.78679271  0.54255528  0.76734284    -0.12000
C416        C  0.74625773  0.56743508  0.77782389     0.23300
C417        C  0.74158383  0.60568098  0.75237275    -0.12600
C418        C  0.75507746  0.60148968  0.70760244     0.04700
C419        C  0.71128855  0.56211127  0.81529287     0.27100
C420        C  0.66537005  0.55645277  0.80421486    -0.13300
C421        C  0.63097628  0.55956953  0.83664256     0.05200
C422        C  0.63951879  0.57837444  0.87927190    -0.09300
C423        C  0.68463553  0.57206934  0.89345290     0.06100
C424        C  0.72020967  0.56930573  0.86150372    -0.13600
Br425      Br  0.77180280  0.65111998  0.78585441    -0.05700
Br426      Br  0.85176240  0.50801470  0.70443179    -0.00100
Br427      Br  0.57142037  0.54144683  0.82014608     0.00400
Br428      Br  0.78036938  0.57159315  0.88363073    -0.04000
Br429      Br  0.71957650  0.56922300  0.66529819     0.00500
Br430      Br  0.81070232  0.49720305  0.80608746    -0.03300
Br431      Br  0.64518410  0.55323604  0.74396584    -0.04200
Br432      Br  0.69360660  0.52962863  0.94127413    -0.00200
C433        C  0.62283811  0.64986716  0.93429942     0.01200
C434        C  0.61157157  0.69644588  0.92846342     0.04000
C435        C  0.64464813  0.72997632  0.92906918    -0.12000
C436        C  0.68709980  0.72106344  0.94701087     0.23300
C437        C  0.69288997  0.67775484  0.96684581    -0.12600
C438        C  0.66063383  0.64340084  0.96232984     0.04700
C439        C  0.72573250  0.75440409  0.94338042     0.27100
C440        C  0.76497306  0.73999551  0.92158951    -0.13300
C441        C  0.80466128  0.76220861  0.92820932     0.05200
C442        C  0.80472964  0.80872689  0.93682635    -0.09300
C443        C  0.76965421  0.82119984  0.96602379     0.06100
C444        C  0.72850369  0.79726440  0.96550158    -0.13600
Br445      Br  0.74491910  0.66362390  0.00070468    -0.05700
Br446      Br  0.55071393  0.71694747  0.92812058    -0.00100
Br447      Br  0.84013700  0.72437562  0.96692626     0.00400
Br448      Br  0.67767050  0.83066448  0.98720711    -0.04000
Br449      Br  0.65961997  0.59925386  0.00985821     0.00500
Br450      Br  0.63369769  0.78343182  0.89561378    -0.03300
Br451      Br  0.77134577  0.68401051  0.89229012    -0.04200
Br452      Br  0.78312452  0.85902240  0.01643980    -0.00200
C453        C  0.80415034  0.80973234  0.13385396     0.01200
C454        C  0.81458492  0.77399259  0.10415770     0.04000
C455        C  0.78807454  0.73458957  0.10200536    -0.12000
C456        C  0.74344753  0.73442142  0.11861688     0.23300
C457        C  0.72863085  0.77580838  0.13727811    -0.12600
C458        C  0.75709961  0.81352014  0.14112798     0.04700
C459        C  0.71048406  0.69504253  0.11207625     0.27100
C460        C  0.66858920  0.70072034  0.08963428    -0.13300
C461        C  0.63269821  0.67053151  0.09605818     0.05200
C462        C  0.63742368  0.63540048  0.12702090    -0.09300
C463        C  0.68226773  0.62014405  0.13179461     0.06100
C464        C  0.71779062  0.65114125  0.12977494    -0.13600
Br465      Br  0.66726692  0.78509929  0.15286261    -0.05700
Br466      Br  0.85385400  0.78464135  0.05473433    -0.00100
Br467      Br  0.58580797  0.66647029  0.05168979     0.00400
Br468      Br  0.76865434  0.63568497  0.16500898    -0.04000
Br469      Br  0.72695001  0.86667405  0.11928498     0.00500
Br470      Br  0.81694649  0.68202887  0.07805801    -0.03300
Br471      Br  0.65827867  0.74893368  0.05017520    -0.04200
Br472      Br  0.69536337  0.55722732  0.13700704    -0.00200
C473        C  0.77462500  0.57909819  0.38275234     0.01200
C474        C  0.73018234  0.57426310  0.40004536     0.04000
C475        C  0.69208624  0.57312665  0.37102819    -0.12000
C476        C  0.69718413  0.56939784  0.32413693     0.23300
C477        C  0.74076074  0.56195122  0.30799649    -0.12600
C478        C  0.77836165  0.56410574  0.33688670     0.04700
C479        C  0.65946290  0.57753941  0.29075168     0.27100
C480        C  0.63757038  0.54421761  0.26550395    -0.13300
C481        C  0.61991919  0.55369806  0.22162896     0.05200
C482        C  0.62251225  0.59820807  0.20281730    -0.09300
C483        C  0.64507055  0.62936619  0.23039139     0.06100
C484        C  0.65594089  0.62062586  0.27462150    -0.13600
Br485      Br  0.74850256  0.54614042  0.24572048    -0.05700
Br486      Br  0.72257562  0.53977433  0.45375678    -0.00100
Br487      Br  0.59763928  0.50308670  0.18915863     0.00400
Br488      Br  0.64680448  0.66728467  0.31654397    -0.04000
Br489      Br  0.83337081  0.54124564  0.31239551     0.00500
Br490      Br  0.63272324  0.56985794  0.39563859    -0.03300
Br491      Br  0.61589877  0.49322872  0.29745204    -0.04200
Br492      Br  0.66471588  0.68538337  0.21019782    -0.00200
C493        C  0.83233665  0.63680656  0.36297069     0.01200
C494        C  0.87653430  0.63356474  0.34489331     0.04000
C495        C  0.88936955  0.66317662  0.30976777    -0.12000
C496        C  0.85909624  0.69269568  0.28870778     0.23300
C497        C  0.81444100  0.68874666  0.29955771    -0.12600
C498        C  0.80179084  0.66530409  0.33825259     0.04700
C499        C  0.87234370  0.72608276  0.25316512     0.27100
C500        C  0.88751370  0.76937047  0.26407149    -0.13300
C501        C  0.89351454  0.80165989  0.22958007     0.05200
C502        C  0.87217305  0.79537881  0.18797254    -0.09300
C503        C  0.87378056  0.74941104  0.17476093     0.06100
C504        C  0.87063287  0.71502344  0.20749435    -0.13600
Br505      Br  0.77034214  0.71108487  0.25771717    -0.05700
Br506      Br  0.91896363  0.58618041  0.36069632    -0.00100
Br507      Br  0.93916189  0.84602429  0.23451022     0.00400
Br508      Br  0.87475285  0.65274116  0.19070569    -0.04000
Br509      Br  0.74210215  0.67711494  0.35698540     0.00500
Br510      Br  0.94631583  0.65843318  0.28440189    -0.03300
Br511      Br  0.89652928  0.78569780  0.32534381    -0.04200
Br512      Br  0.91238772  0.73372980  0.12550560    -0.00200
C513        C  0.58952363  0.81616240  0.36547606     0.01200
C514        C  0.54557929  0.80799691  0.35005856     0.04000
C515        C  0.53840783  0.78243014  0.31077707    -0.12000
C516        C  0.57328802  0.76131306  0.28689635     0.23300
C517        C  0.61646588  0.77117111  0.30140995    -0.12600
C518        C  0.62403085  0.79175144  0.34249248     0.04700
C519        C  0.56498055  0.72752792  0.24925245     0.27100
C520        C  0.54975424  0.68372570  0.25853729    -0.13300
C521        C  0.54695848  0.65076282  0.22415104     0.05200
C522        C  0.56621518  0.65827260  0.18060655    -0.09300
C523        C  0.56674914  0.70555166  0.16943019     0.06100
C524        C  0.56795505  0.73925200  0.20367152    -0.13600
Br525      Br  0.66585169  0.77352065  0.26161412    -0.05700
Br526      Br  0.49351365  0.82983243  0.37982672    -0.00100
Br527      Br  0.51950217  0.59447278  0.23925854     0.00400
Br528      Br  0.56238656  0.80236817  0.18904501    -0.04000
Br529      Br  0.68503833  0.78882147  0.36248911     0.00500
Br530      Br  0.48379100  0.79101742  0.28152703    -0.03300
Br531      Br  0.53479438  0.66744497  0.31909977    -0.04200
Br532      Br  0.53414467  0.72685256  0.11814514    -0.00200
C533        C  0.63565309  0.88408820  0.36769968     0.01200
C534        C  0.67894884  0.89784563  0.37856889     0.04000
C535        C  0.71436579  0.89533254  0.34671131    -0.12000
C536        C  0.70612139  0.88866037  0.29969640     0.23300
C537        C  0.66029430  0.88776058  0.28750646    -0.12600
C538        C  0.62579558  0.88918589  0.32066611     0.04700
C539        C  0.74421971  0.88257071  0.26460351     0.27100
C540        C  0.75067455  0.90946717  0.22459667    -0.13300
C541        C  0.78700460  0.90060933  0.19400950     0.05200
C542        C  0.81618194  0.86341010  0.20214064    -0.09300
C543        C  0.81802642  0.85279833  0.24786746     0.06100
C544        C  0.77821245  0.84995295  0.27129704    -0.13600
Br545      Br  0.64278584  0.87742226  0.22626132    -0.05700
Br546      Br  0.68108019  0.94919584  0.41670055    -0.00100
Br547      Br  0.79831425  0.94275934  0.14532913     0.00400
Br548      Br  0.77897429  0.80507620  0.31540551    -0.04000
Br549      Br  0.56488536  0.89643361  0.30017115     0.00500
Br550      Br  0.77302975  0.90103029  0.37212880    -0.03300
Br551      Br  0.71134767  0.95660986  0.20695693    -0.04200
Br552      Br  0.85433887  0.89328451  0.28184636    -0.00200
C553        C  0.79605367  0.64838935  0.43860369     0.01200
C554        C  0.80857269  0.69416562  0.43585453     0.04000
C555        C  0.77716420  0.72903763  0.44513562    -0.12000
C556        C  0.73496272  0.71947132  0.46538203     0.23300
C557        C  0.73221740  0.67357616  0.48237849    -0.12600
C558        C  0.76542857  0.64077709  0.47272618     0.04700
C559        C  0.69602386  0.75527581  0.46529757     0.27100
C560        C  0.69999439  0.80260826  0.47640145    -0.13300
C561        C  0.66650360  0.83517948  0.46490578     0.05200
C562        C  0.62924013  0.82287835  0.43884846    -0.09300
C563        C  0.61852106  0.77653512  0.44431454     0.06100
C564        C  0.65262131  0.74356248  0.45019500    -0.13600
Br565      Br  0.68623355  0.64649192  0.51693962    -0.05700
Br566      Br  0.87002022  0.70939753  0.42689988    -0.00100
Br567      Br  0.66303343  0.88783843  0.50332662     0.00400
Br568      Br  0.63897348  0.68514934  0.42774219    -0.04000
Br569      Br  0.78227644  0.59833143  0.51929442     0.00500
Br570      Br  0.79306602  0.78694638  0.42263807    -0.03300
Br571      Br  0.74779150  0.82948252  0.50854620    -0.04200
Br572      Br  0.55717237  0.75739345  0.44557018    -0.00200
C573        C  0.08686008  0.65344478  0.68883522     0.01200
C574        C  0.04252698  0.67272804  0.69505075     0.04000
C575        C  0.03565942  0.70855929  0.72640644    -0.12000
C576        C  0.06727593  0.71695578  0.76045852     0.23300
C577        C  0.10639892  0.69132247  0.75891654    -0.12600
C578        C  0.11885804  0.67248168  0.71815910     0.04700
C579        C  0.06277261  0.75355083  0.79537616     0.27100
C580        C  0.06515639  0.79948342  0.78389250    -0.13300
C581        C  0.06723574  0.83264113  0.81779469     0.05200
C582        C  0.07634762  0.82090970  0.86345923    -0.09300
C583        C  0.06332380  0.77628699  0.87448622     0.06100
C584        C  0.05869488  0.74280886  0.84128189    -0.13600
Br585      Br  0.15039402  0.69386010  0.80505766    -0.05700
Br586      Br  0.98846376  0.65492739  0.66619869    -0.00100
Br587      Br  0.03303456  0.88583739  0.80415046     0.00400
Br588      Br  0.04819018  0.68160250  0.85955856    -0.04000
Br589      Br  0.16143561  0.71113290  0.69344349     0.00500
Br590      Br  0.98298149  0.74542432  0.72233701    -0.03300
Br591      Br  0.06452748  0.81853468  0.72180951    -0.04200
Br592      Br  0.04040966  0.76208831  0.93238188    -0.00200
C593        C  0.14082563  0.63624445  0.62445339     0.01200
C594        C  0.18774811  0.62731174  0.62328352     0.04000
C595        C  0.21867881  0.66275395  0.61847865    -0.12000
C596        C  0.20592443  0.70433750  0.59830112     0.23300
C597        C  0.16070768  0.70545221  0.58336881    -0.12600
C598        C  0.12820395  0.67464892  0.59890855     0.04700
C599        C  0.23661163  0.74635640  0.59720230     0.27100
C600        C  0.22031780  0.79023138  0.60974230    -0.13300
C601        C  0.25030623  0.82634704  0.61546321     0.05200
C602        C  0.29692455  0.81789881  0.61874652    -0.09300
C603        C  0.31084170  0.78314315  0.59043718     0.06100
C604        C  0.28290174  0.74547484  0.58360429    -0.13600
Br605      Br  0.14101574  0.74606361  0.53935001    -0.05700
Br606      Br  0.20795352  0.57738826  0.58798896    -0.00100
Br607      Br  0.22802084  0.88752004  0.61495008     0.00400
Br608      Br  0.31124316  0.69755903  0.55097422    -0.04000
Br609      Br  0.06643041  0.68957961  0.58760590     0.00500
Br610      Br  0.27740616  0.65015298  0.64025749    -0.03300
Br611      Br  0.15928006  0.80378042  0.62619841    -0.04200
Br612      Br  0.34375528  0.80293987  0.53854338    -0.00200
C613        C  0.29378649  0.86102651  0.69113751     0.01200
C614        C  0.26521699  0.82918096  0.71283006     0.04000
C615        C  0.23053322  0.84356094  0.74096706    -0.12000
C616        C  0.23271867  0.88464098  0.76339124     0.23300
C617        C  0.26443655  0.91492732  0.74647548    -0.12600
C618        C  0.28916005  0.90613016  0.70671766     0.04700
C619        C  0.20131269  0.89493299  0.80263096     0.27100
C620        C  0.15555432  0.90430917  0.79535166    -0.13300
C621        C  0.12595846  0.90802942  0.83206111     0.05200
C622        C  0.13666678  0.88679881  0.87299732    -0.09300
C623        C  0.18252756  0.89291602  0.88360907     0.06100
C624        C  0.21522648  0.89447426  0.84841202    -0.13600
Br625      Br  0.27940009  0.96579207  0.77956314    -0.05700
Br626      Br  0.27084300  0.76474144  0.70582787    -0.00100
Br627      Br  0.09870767  0.96660756  0.83642833     0.00400
Br628      Br  0.27754756  0.89470209  0.86383743    -0.04000
Br629      Br  0.31498484  0.95748630  0.67746870     0.00500
Br630      Br  0.17647613  0.81147218  0.73734640    -0.03300
Br631      Br  0.13233189  0.91603302  0.73655146    -0.04200
Br632      Br  0.19951147  0.90080350  0.94512042    -0.00200
C633        C  0.29565682  0.60126408  0.86023891     0.01200
C634        C  0.27401460  0.63370596  0.83147938     0.04000
C635        C  0.24724832  0.62026296  0.79596335    -0.12000
C636        C  0.22751425  0.57842932  0.79645467     0.23300
C637        C  0.24317400  0.54762867  0.82873381    -0.12600
C638        C  0.28148125  0.55615725  0.85491775     0.04700
C639        C  0.19115044  0.56870652  0.76305071     0.27100
C640        C  0.14530786  0.57487042  0.77325544    -0.13300
C641        C  0.11336226  0.57624477  0.73812679     0.05200
C642        C  0.12768746  0.57779372  0.69258346    -0.09300
C643        C  0.16899160  0.55545635  0.68543705     0.06100
C644        C  0.20226352  0.55678588  0.71869060    -0.13600
Br645      Br  0.20550635  0.50175295  0.84785998    -0.05700
Br646      Br  0.27753079  0.69763177  0.83906958    -0.00100
Br647      Br  0.05055838  0.57572930  0.75194491     0.00400
Br648      Br  0.26282924  0.54254239  0.70229773    -0.04000
Br649      Br  0.30876089  0.50538463  0.88455355     0.00500
Br650      Br  0.24001719  0.65899049  0.74591287    -0.03300
Br651      Br  0.12594874  0.58421608  0.83411651    -0.04200
Br652      Br  0.16890414  0.50043966  0.65179027    -0.00200
C653        C  0.29879158  0.64484962  0.93003033     0.01200
C654        C  0.31191751  0.67619321  0.96209419     0.04000
C655        C  0.28219645  0.71172569  0.97340531    -0.12000
C656        C  0.23630862  0.71052255  0.95977589     0.23300
C657        C  0.22158908  0.66979933  0.94160011    -0.12600
C658        C  0.25237110  0.63528236  0.93334111     0.04700
C659        C  0.20549365  0.75103242  0.95697365     0.27100
C660        C  0.16358191  0.75506401  0.97851419    -0.13300
C661        C  0.13369508  0.79203032  0.96841175     0.05200
C662        C  0.13730705  0.81554459  0.92520071    -0.09300
C663        C  0.17618830  0.80099137  0.90160559     0.06100
C664        C  0.21268307  0.78087600  0.92257069    -0.13600
Br665      Br  0.16158355  0.66141469  0.92064675    -0.05700
Br666      Br  0.35635613  0.65855065  0.00571138    -0.00100
Br667      Br  0.09255565  0.80268833  0.01726413     0.00400
Br668      Br  0.27100646  0.79020006  0.90025993    -0.04000
Br669      Br  0.23203703  0.57545598  0.94492245     0.00500
Br670      Br  0.30926057  0.76182249  0.00167579    -0.03300
Br671      Br  0.14675777  0.70943320  0.02036558    -0.04200
Br672      Br  0.17736697  0.79366707  0.83963313    -0.00200
C673        C  0.36489206  0.64646845  0.86290914     0.01200
C674        C  0.37193122  0.62980256  0.81829431     0.04000
C675        C  0.37069500  0.65939531  0.78072846    -0.12000
C676        C  0.38186600  0.70531068  0.78574316     0.23300
C677        C  0.39547033  0.71689816  0.82991736    -0.12600
C678        C  0.38249524  0.69075870  0.86824732     0.04700
C679        C  0.37917490  0.74162472  0.74814705     0.27100
C680        C  0.39267719  0.73693182  0.70186333    -0.13300
C681        C  0.38208579  0.77149221  0.66956604     0.05200
C682        C  0.36130390  0.81202300  0.68315246    -0.09300
C683        C  0.36748521  0.82105789  0.72906518     0.06100
C684        C  0.36572173  0.78586971  0.75988470    -0.13600
Br685      Br  0.43636733  0.76601931  0.83723726    -0.05700
Br686      Br  0.38137096  0.56649586  0.80751791    -0.00100
Br687      Br  0.41466129  0.77334093  0.61440060     0.00400
Br688      Br  0.33395473  0.80034844  0.81313446    -0.04000
Br689      Br  0.39981716  0.71446568  0.92489583     0.00500
Br690      Br  0.35130885  0.63432315  0.72528661    -0.03300
Br691      Br  0.43131272  0.68942887  0.68117501    -0.04200
Br692      Br  0.38116409  0.88019187  0.75071203    -0.00200
C693        C  0.63048250  0.10222926  0.69594899     0.01200
C694        C  0.64364289  0.05567729  0.70206457     0.04000
C695        C  0.67799277  0.04371644  0.73380745    -0.12000
C696        C  0.68931222  0.07321202  0.76908286     0.23300
C697        C  0.67186593  0.11633609  0.76621254    -0.12600
C698        C  0.65509018  0.13141575  0.72507237     0.04700
C699        C  0.73102914  0.06822389  0.79711587     0.27100
C700        C  0.73275799  0.04976049  0.84109043    -0.13300
C701        C  0.77255686  0.05271191  0.86665628     0.05200
C702        C  0.80560221  0.08323100  0.85456474    -0.09300
C703        C  0.80921667  0.08599806  0.80679888     0.06100
C704        C  0.77034721  0.08760926  0.78057592    -0.13600
Br705      Br  0.68596302  0.15864931  0.81213290    -0.05700
Br706      Br  0.62405386  0.00760707  0.66442190    -0.00100
Br707      Br  0.79258464  0.00166213  0.89928497     0.00400
Br708      Br  0.77423271  0.10416802  0.71798287    -0.04000
Br709      Br  0.68514508  0.18481141  0.70573233     0.00500
Br710      Br  0.71643798  0.99265613  0.72281346    -0.03300
Br711      Br  0.68075764  0.02925809  0.87143458    -0.04200
Br712      Br  0.84208254  0.03708059  0.77981536    -0.00200
C713        C  0.78146569  0.32029767  0.63635219     0.01200
C714        C  0.75081737  0.29359339  0.65906409     0.04000
C715        C  0.74956365  0.24911387  0.64547234    -0.12000
C716        C  0.73189857  0.24504423  0.60284743     0.14100
C717        C  0.74523531  0.28091988  0.57306917    -0.12600
C718        C  0.77585435  0.31502225  0.58863804     0.04700
C719        C  0.69475792  0.21067371  0.59822212     0.27100
C720        C  0.70464488  0.16385699  0.60277680    -0.13300
C721        C  0.67031084  0.13277314  0.61166580     0.05200
C722        C  0.62632489  0.14774904  0.62207451    -0.09300
C723        C  0.61520516  0.19012897  0.60298272     0.06100
C724        C  0.64867565  0.22242706  0.59387114    -0.13600
Br725      Br  0.71533211  0.29268266  0.51941147    -0.05700
Br726      Br  0.69249109  0.32040246  0.66219864    -0.00100
Br727      Br  0.68228658  0.07084238  0.59844511     0.00400
Br728      Br  0.62795845  0.28237452  0.57924687    -0.04000
Br729      Br  0.79935787  0.35658225  0.54527812     0.00500
Br730      Br  0.80295581  0.21460050  0.65605997    -0.03300
Br731      Br  0.76390617  0.13987665  0.59120705    -0.04200
Br732      Br  0.55538761  0.20284591  0.58307941    -0.00200
C733        C  0.86496240  0.14559731  0.86504448     0.01200
C734        C  0.87219616  0.19113991  0.87426308     0.04000
C735        C  0.87294368  0.22196445  0.83851743    -0.12000
C736        C  0.87870253  0.20686976  0.79359409     0.23300
C737        C  0.88582157  0.16044560  0.78742670    -0.12600
C738        C  0.88663889  0.13170790  0.82548958     0.04700
C739        C  0.86522576  0.23751751  0.75566492     0.27100
C740        C  0.82141540  0.25127851  0.75584851    -0.13300
C741        C  0.80750827  0.29017856  0.73324270     0.05200
C742        C  0.83601284  0.31266860  0.70031124    -0.09300
C743        C  0.88107854  0.29618673  0.69988571     0.06100
C744        C  0.89363419  0.25683914  0.72354069    -0.13600
Br745      Br  0.88065396  0.13493637  0.72840863    -0.05700
Br746      Br  0.92090699  0.20188108  0.91413920    -0.00100
Br747      Br  0.74838476  0.30716028  0.75321212     0.00400
Br748      Br  0.94498864  0.22553859  0.70189721    -0.04000
Br749      Br  0.92491684  0.08001908  0.82856978     0.00500
Br750      Br  0.86124118  0.28368264  0.85346190    -0.03300
Br751      Br  0.77960260  0.20853617  0.77948094    -0.04200
Br752      Br  0.93158932  0.33084472  0.68230526    -0.00200
C753        C  0.56534978  0.15999126  0.68457667     0.01200
C754        C  0.58607641  0.19079262  0.71332707     0.04000
C755        C  0.56565378  0.19591513  0.75511873    -0.12000
C756        C  0.52450980  0.21798239  0.75202405     0.23300
C757        C  0.49970335  0.20481297  0.71274909    -0.12600
C758        C  0.51781200  0.17041694  0.68266852     0.04700
C759        C  0.51588538  0.25646023  0.78544761     0.27100
C760        C  0.50973246  0.24694760  0.83167845    -0.13300
C761        C  0.52362931  0.27779930  0.86531033     0.05200
C762        C  0.54489193  0.31863121  0.85315010    -0.09300
C763        C  0.53225497  0.33415333  0.80969200     0.06100
C764        C  0.52261625  0.30267963  0.77493136    -0.13600
Br765      Br  0.44897322  0.23749248  0.69349315    -0.05700
Br766      Br  0.59771682  0.24819476  0.68603434    -0.00100
Br767      Br  0.51251483  0.26291346  0.92705746     0.00400
Br768      Br  0.51775938  0.32452447  0.71427329    -0.04000
Br769      Br  0.47800322  0.14722689  0.63751641     0.00500
Br770      Br  0.56529357  0.14214531  0.79113126    -0.03300
Br771      Br  0.48334392  0.19122577  0.84952913    -0.04200
Br772      Br  0.52707775  0.39785783  0.79819226    -0.00200
C773        C  0.61209767  0.30330428  0.90613838     0.01200
C774        C  0.61643778  0.28843348  0.95207225     0.04000
C775        C  0.64651965  0.25125651  0.96168946    -0.12000
C776        C  0.68265784  0.24117140  0.93105384     0.23300
C777        C  0.68000883  0.26505127  0.89125876    -0.12600
C778        C  0.63791497  0.27704602  0.87685735     0.04700
C779        C  0.71955826  0.20548455  0.93370681     0.27100
C780        C  0.76450933  0.21791215  0.94045748    -0.13300
C781        C  0.79985466  0.18577138  0.93826574     0.05200
C782        C  0.79329995  0.14272906  0.91880628    -0.09300
C783        C  0.74840896  0.12822470  0.92439331     0.06100
C784        C  0.71202744  0.15930109  0.92597747    -0.13600
Br785      Br  0.72889910  0.27352668  0.85311505    -0.05700
Br786      Br  0.58036892  0.31050927  0.00098781    -0.00100
Br787      Br  0.84178088  0.19133120  0.98643991     0.00400
Br788      Br  0.65248823  0.13593490  0.92312001    -0.04000
Br789      Br  0.60914248  0.22277630  0.85963227     0.00500
Br790      Br  0.62567310  0.20945420  0.00502340    -0.03300
Br791      Br  0.77847692  0.27883160  0.95529109    -0.04200
Br792      Br  0.73904096  0.07592785  0.96107250    -0.00200
C793        C  0.61886230  0.36660681  0.85064646     0.01200
C794        C  0.65274162  0.39612262  0.86611975     0.04000
C795        C  0.68312706  0.41708120  0.83553789    -0.12000
C796        C  0.68322128  0.40846196  0.78870418     0.23300
C797        C  0.64678051  0.38294087  0.77414407    -0.12600
C798        C  0.62435662  0.35548484  0.80419080     0.04700
C799        C  0.72466329  0.41504379  0.75820317     0.27100
C800        C  0.72063808  0.42573119  0.71175111    -0.13300
C801        C  0.75178353  0.40912630  0.67980189     0.05200
C802        C  0.79071810  0.38600830  0.69415794    -0.09300
C803        C  0.80284019  0.39480265  0.73938448     0.06100
C804        C  0.76905005  0.40272446  0.77203703    -0.13600
Br805      Br  0.62071127  0.38319442  0.71535387    -0.05700
Br806      Br  0.66811346  0.39942504  0.92860098    -0.00100
Br807      Br  0.74084668  0.42121852  0.61716197     0.00400
Br808      Br  0.78400077  0.38080212  0.83160225    -0.04000
Br809      Br  0.62605263  0.29587952  0.78049185     0.00500
Br810      Br  0.72029822  0.46249295  0.85799948    -0.03300
Br811      Br  0.67658595  0.46708101  0.69038437    -0.04200
Br812      Br  0.86457779  0.39354622  0.75782555    -0.00200
C813        C  0.29278269  0.81534908  0.42552729     0.01200
C814        C  0.28867407  0.76853220  0.41516305     0.04000
C815        C  0.24664705  0.74787763  0.41232423    -0.12000
C816        C  0.20956176  0.76286743  0.43715430     0.23300
C817        C  0.21524234  0.80606996  0.45804554    -0.12600
C818        C  0.25440332  0.83268832  0.44960027     0.04700
C819        C  0.17000445  0.72928352  0.44132237     0.27100
C820        C  0.12429851  0.73776350  0.42971304    -0.13300
C821        C  0.09387352  0.70150435  0.42655091     0.05200
C822        C  0.10988509  0.65668108  0.42262099    -0.09300
C823        C  0.14526615  0.65022901  0.45253757     0.06100
C824        C  0.17785132  0.68419663  0.45705763    -0.13600
Br825      Br  0.17009771  0.83521612  0.49425823    -0.05700
Br826      Br  0.32989191  0.72372556  0.43622009    -0.00100
Br827      Br  0.04750000  0.70866244  0.47072185     0.00400
Br828      Br  0.23131777  0.66684401  0.48669962    -0.04000
Br829      Br  0.25046084  0.89523338  0.46736513     0.00500
Br830      Br  0.24126917  0.69690714  0.37358531    -0.03300
Br831      Br  0.09644874  0.79609073  0.42724570    -0.04200
Br832      Br  0.13586056  0.61005096  0.50222814    -0.00200
C833        C  0.08369714  0.82462910  0.20782800     0.01200
C834        C  0.10575317  0.80926519  0.24830862     0.04000
C835        C  0.09107713  0.77420552  0.27589706    -0.12000
C836        C  0.05412515  0.75020124  0.26465680     0.23300
C837        C  0.03150601  0.76160736  0.22507565    -0.12600
C838        C  0.04452998  0.79863598  0.19749618     0.04700
C839        C  0.04471546  0.70954216  0.29264597     0.27100
C840        C  0.06190037  0.66753067  0.27996653    -0.13300
C841        C  0.05908370  0.63110869  0.30977435     0.05200
C842        C  0.05397123  0.63839674  0.35686866    -0.09300
C843        C  0.02607476  0.67632191  0.36559596     0.06100
C844        C  0.02565342  0.71342871  0.33578391    -0.13600
Br845      Br  0.98607540  0.72195777  0.20612680    -0.05700
Br846      Br  0.16132448  0.82643827  0.26724692    -0.00100
Br847      Br  0.02439718  0.58447609  0.28278119     0.00400
Br848      Br  0.00306694  0.77032135  0.35606908    -0.04000
Br849      Br  0.00729450  0.80672853  0.14558427     0.00500
Br850      Br  0.12599701  0.75210179  0.32673149    -0.03300
Br851      Br  0.08521442  0.65785497  0.22054151    -0.04200
Br852      Br  0.97524653  0.67145165  0.40394599    -0.00200
C853        C  0.28935950  0.87625199  0.36751984     0.01200
C854        C  0.28168903  0.92418403  0.36639058     0.04000
C855        C  0.24368286  0.94262174  0.34364913    -0.12000
C856        C  0.21265685  0.91516864  0.32266513     0.23300
C857        C  0.21537606  0.87093252  0.33475768    -0.12600
C858        C  0.25620861  0.85135983  0.34436218     0.04700
C859        C  0.18540036  0.92658066  0.28091520     0.27100
C860        C  0.13813722  0.93075178  0.28204470    -0.13300
C861        C  0.11144803  0.91617463  0.24492718     0.05200
C862        C  0.13182233  0.89874503  0.20455088    -0.09300
C863        C  0.17843674  0.90893173  0.20053985     0.06100
C864        C  0.20467962  0.91676075  0.23891117    -0.13600
Br865      Br  0.16828884  0.85437744  0.37291393    -0.05700
Br866      Br  0.32049271  0.96792450  0.39162123    -0.00100
Br867      Br  0.04775333  0.91318715  0.25456029     0.00400
Br868      Br  0.26539741  0.89558004  0.23620617    -0.04000
Br869      Br  0.26334617  0.79363621  0.31699058     0.00500
Br870      Br  0.21826533  0.99500450  0.36742750    -0.03300
Br871      Br  0.10962751  0.94822435  0.33738226    -0.04200
Br872      Br  0.21110678  0.91381708  0.14532233    -0.00200
C873        C  0.36542054  0.65179329  0.19678613     0.01200
C874        C  0.39807301  0.68321048  0.18712674     0.04000
C875        C  0.40570125  0.71931548  0.21716257    -0.12000
C876        C  0.38747312  0.71844193  0.26226395     0.23300
C877        C  0.36907262  0.67656238  0.27513855    -0.12600
C878        C  0.36267423  0.64219004  0.24335515     0.04700
C879        C  0.38528861  0.75824872  0.29567185     0.27100
C880        C  0.39975663  0.75499874  0.34170451    -0.13300
C881        C  0.38600836  0.78744001  0.37450800     0.05200
C882        C  0.35676392  0.82277994  0.36219318    -0.09300
C883        C  0.35903444  0.83402578  0.31593146     0.06100
C884        C  0.36702166  0.80056406  0.28323988    -0.13600
Br885      Br  0.34405372  0.66690153  0.33325094    -0.05700
Br886      Br  0.44551728  0.66330704  0.14805692    -0.00100
Br887      Br  0.41174192  0.78743888  0.43447142     0.00400
Br888      Br  0.34638692  0.81325917  0.22368264    -0.04000
Br889      Br  0.35857743  0.58111198  0.26385557     0.00500
Br890      Br  0.43929490  0.76699912  0.19032537    -0.03300
Br891      Br  0.44029301  0.70847728  0.36082234    -0.04200
Br892      Br  0.36580341  0.89556692  0.29826626    -0.00200
C893        C  0.29068253  0.61548081  0.19043460     0.01200
C894        C  0.27460316  0.57097877  0.19634500     0.04000
C895        C  0.23814433  0.56252917  0.22583967    -0.12000
C896        C  0.21484510  0.59615750  0.24964873     0.23300
C897        C  0.22737978  0.64016143  0.24038286    -0.12600
C898        C  0.26524869  0.64989987  0.21381152     0.04700
C899        C  0.18458273  0.58674294  0.29050879     0.27100
C900        C  0.14244251  0.56513581  0.28955523    -0.13300
C901        C  0.11705340  0.56067877  0.33016982     0.05200
C902        C  0.12632003  0.58867898  0.36738373    -0.09300
C903        C  0.17314790  0.59460803  0.37230054     0.06100
C904        C  0.20152415  0.59489878  0.33379127    -0.13600
Br905      Br  0.19105447  0.68790204  0.26375297    -0.05700
Br906      Br  0.30186221  0.51905501  0.16806372    -0.00100
Br907      Br  0.07639324  0.51159988  0.33799944     0.00400
Br908      Br  0.26520660  0.58997476  0.34072831    -0.04000
Br909      Br  0.28287733  0.71177814  0.21583390     0.00500
Br910      Br  0.21991919  0.50400690  0.23323643    -0.03300
Br911      Br  0.11838024  0.54219043  0.23445639    -0.04200
Br912      Br  0.20048707  0.56774735  0.42446232    -0.00200
C913        C  0.14367866  0.83186406  0.14721128     0.01200
C914        C  0.16443647  0.79417990  0.16831017     0.04000
C915        C  0.16591913  0.75594114  0.14194392    -0.12000
C916        C  0.19599356  0.76084763  0.10603028     0.23300
C917        C  0.19041862  0.80412278  0.08366468    -0.12600
C918        C  0.15890850  0.83708586  0.10132593     0.04700
C919        C  0.23663600  0.72796199  0.10463431     0.27100
C920        C  0.28212678  0.74165395  0.10902138    -0.13300
C921        C  0.31756818  0.70957372  0.11656604     0.05200
C922        C  0.30905629  0.66285795  0.12382502    -0.09300
C923        C  0.26677970  0.64987268  0.10643635     0.06100
C924        C  0.23037242  0.68049050  0.10478130    -0.13600
Br925      Br  0.22522757  0.82285549  0.03359102    -0.05700
Br926      Br  0.22378122  0.80415570  0.19064575    -0.00100
Br927      Br  0.37538992  0.72893208  0.09755156     0.00400
Br928      Br  0.17312591  0.65271859  0.11280261    -0.04000
Br929      Br  0.14542968  0.88997773  0.06460854     0.00500
Br930      Br  0.10652742  0.73669005  0.12676542    -0.03300
Br931      Br  0.29874806  0.80425136  0.11151218    -0.04200
Br932      Br  0.25518053  0.58919840  0.08738591    -0.00200
C933        C  0.12503504  0.37111443  0.70021047     0.01200
C934        C  0.11429502  0.41180647  0.72493656     0.04000
C935        C  0.13719332  0.42209296  0.76620003    -0.12000
C936        C  0.17003605  0.39197523  0.78402787     0.23300
C937        C  0.17073844  0.35015147  0.76396815    -0.12600
C938        C  0.16337565  0.34903144  0.71741549     0.04700
C939        C  0.20384179  0.40022948  0.82149475     0.27100
C940        C  0.24869624  0.40949383  0.81018964    -0.13300
C941        C  0.28392302  0.40236300  0.84133757     0.05200
C942        C  0.27495634  0.38775355  0.88632244    -0.09300
C943        C  0.23013791  0.39663199  0.90007018     0.06100
C944        C  0.19463740  0.39612061  0.86808490    -0.13600
Br945      Br  0.13632240  0.31076884  0.80012201    -0.05700
Br946      Br  0.07533644  0.45901344  0.70221975    -0.00100
Br947      Br  0.34411233  0.41178283  0.82015060     0.00400
Br948      Br  0.13457996  0.39111992  0.88989407    -0.04000
Br949      Br  0.21689103  0.36595329  0.68747002     0.00500
Br950      Br  0.11335882  0.46914228  0.80281841    -0.03300
Br951      Br  0.26141554  0.43889755  0.75446620    -0.04200
Br952      Br  0.22190966  0.44081313  0.94596985    -0.00200
C953        C  0.12547747  0.15642617  0.92411068     0.01200
C954        C  0.13872944  0.15656952  0.97037406     0.04000
C955        C  0.17384733  0.18579670  0.98393494    -0.12000
C956        C  0.20416479  0.20406458  0.95260031     0.23300
C957        C  0.19594318  0.19135741  0.90863732    -0.12600
C958        C  0.15157862  0.18568444  0.89742616     0.04700
C959        C  0.23562825  0.24262297  0.96182486     0.27100
C960        C  0.21962395  0.28639985  0.97299759    -0.13300
C961        C  0.24816733  0.32397907  0.96982233     0.05200
C962        C  0.29067730  0.32015682  0.94926750    -0.09300
C963        C  0.30974289  0.27611879  0.95384799     0.06100
C964        C  0.28226477  0.23759660  0.95659828    -0.13600
Br965      Br  0.24053762  0.18504320  0.86369377    -0.05700
Br966      Br  0.11365483  0.11984349  0.01647644    -0.00100
Br967      Br  0.24153532  0.36565752  0.01762943     0.00400
Br968      Br  0.30875207  0.17820001  0.95773168    -0.04000
Br969      Br  0.12898797  0.24561708  0.89177999     0.00500
Br970      Br  0.17932712  0.20136545  0.04362085    -0.03300
Br971      Br  0.15833567  0.29826155  0.98926559    -0.04200
Br972      Br  0.37268778  0.26893542  0.96286182    -0.00200
C973        C  0.05427463  0.15261492  0.87313937     0.01200
C974        C  0.03370779  0.13607136  0.83389329     0.04000
C975        C  0.01433559  0.16649873  0.80286153    -0.12000
C976        C  0.01823927  0.21411881  0.80842948     0.23300
C977        C  0.02661137  0.22796331  0.85359088    -0.12600
C978        C  0.03979265  0.19588731  0.88660617     0.04700
C979        C  0.02627627  0.24622099  0.76825553     0.27100
C980        C  0.05842216  0.23479903  0.73582182    -0.13300
C981        C  0.08387710  0.26725878  0.71503898     0.05200
C982        C  0.06670861  0.31117370  0.70579809    -0.09300
C983        C  0.03000643  0.32336184  0.73459864     0.06100
C984        C  0.01050231  0.29148022  0.76532500    -0.13600
Br985      Br  0.02803881  0.29006004  0.87205967    -0.05700
Br986      Br  0.03692940  0.07265456  0.81814838    -0.00100
Br987      Br  0.14510897  0.24822221  0.71040539     0.00400
Br988      Br  0.95617271  0.30773547  0.79598248    -0.04000
Br989      Br  0.03767599  0.21155529  0.94961162     0.00500
Br990      Br  0.98360010  0.13906893  0.75440127    -0.03300
Br991      Br  0.06455400  0.17763153  0.70799558    -0.04200
Br992      Br  0.00885547  0.38402171  0.73922132    -0.00200
C993        C  0.32369273  0.32047812  0.87217796     0.01200
C994        C  0.36720608  0.31191635  0.85397062     0.04000
C995        C  0.37244937  0.28799304  0.81318298    -0.12000
C996        C  0.33772334  0.26424421  0.79297500     0.23300
C997        C  0.29520496  0.27250772  0.81064825    -0.12600
C998        C  0.28833990  0.29751630  0.84980635     0.04700
C999        C  0.34613333  0.22820393  0.75702940     0.27100
C1000       C  0.34533627  0.23715219  0.71037641    -0.13300
C1001       C  0.34737092  0.20089525  0.67858737     0.05200
C1002       C  0.34961966  0.15459961  0.69281708    -0.09300
C1003       C  0.36720692  0.15029672  0.73677484     0.06100
C1004       C  0.35944047  0.18419744  0.76952041    -0.13600
Br1005     Br  0.24345461  0.26043056  0.77724191    -0.05700
Br1006     Br  0.42255104  0.32679288  0.88228326    -0.00100
Br1007     Br  0.35288000  0.21551804  0.61593769     0.00400
Br1008     Br  0.37190110  0.17090478  0.83123035    -0.04000
Br1009     Br  0.22745719  0.29811164  0.87047495     0.00500
Br1010     Br  0.42032997  0.30470126  0.77632564    -0.03300
Br1011     Br  0.34678842  0.29907207  0.69016547    -0.04200
Br1012     Br  0.42517434  0.12249524  0.74107125    -0.00200
C1013       C  0.11546190  0.31076025  0.63326096     0.01200
C1014       C  0.15559384  0.32155011  0.61085571     0.04000
C1015       C  0.18510322  0.28680164  0.59590976    -0.12000
C1016       C  0.17454451  0.24030761  0.60097425     0.23300
C1017       C  0.12872713  0.23184118  0.60862299    -0.12600
C1018       C  0.09860179  0.26768496  0.62030001     0.04700
C1019       C  0.21081869  0.20440472  0.61219258     0.27100
C1020       C  0.22849172  0.16894641  0.58531593    -0.13300
C1021       C  0.26891276  0.14637035  0.59782516     0.05200
C1022       C  0.28108807  0.14236805  0.64443033    -0.09300
C1023       C  0.25388013  0.16983173  0.67260783     0.06100
C1024       C  0.22969851  0.20603456  0.65456811    -0.13600
Br1025     Br  0.10783563  0.17095506  0.60788526    -0.05700
Br1026     Br  0.16669740  0.38262689  0.59188067    -0.00100
Br1027     Br  0.30664381  0.13374783  0.54748618     0.00400
Br1028     Br  0.24693968  0.26254172  0.67403261    -0.04000
Br1029     Br  0.03526447  0.25707457  0.61809028     0.00500
Br1030     Br  0.24168582  0.30518565  0.57375039    -0.03300
Br1031     Br  0.19455237  0.13699154  0.54294149    -0.04200
Br1032     Br  0.25344467  0.16559505  0.73629551    -0.00200
C1033       C  0.12387611  0.10109983  0.86269452     0.01200
C1034       C  0.13286421  0.12057242  0.81915551     0.04000
C1035       C  0.16011801  0.09940873  0.78717647    -0.12000
C1036       C  0.19205121  0.06731154  0.80042383     0.23300
C1037       C  0.18736519  0.04954449  0.84483042    -0.12600
C1038       C  0.15311990  0.06504117  0.87476013     0.04700
C1039       C  0.23190756  0.05951689  0.76886931     0.27100
C1040       C  0.22582608  0.04601677  0.72355253    -0.13300
C1041       C  0.25688674  0.05847088  0.68957395     0.05200
C1042       C  0.29750139  0.08032257  0.70112675    -0.09300
C1043       C  0.30945010  0.07454426  0.74677822     0.06100
C1044       C  0.27601941  0.07187816  0.78032794    -0.13600
Br1045     Br  0.22548018  0.00252751  0.86651760    -0.05700
Br1046     Br  0.12282957  0.18225602  0.80332652    -0.00100
Br1047     Br  0.24226053  0.04486246  0.62810505     0.00400
Br1048     Br  0.29356852  0.08457866  0.84064625    -0.04000
Br1049     Br  0.15107889  0.03939668  0.93447481     0.00500
Br1050     Br  0.15532975  0.11939144  0.72523427    -0.03300
Br1051     Br  0.17362858  0.01316331  0.70715226    -0.04200
Br1052     Br  0.36223879  0.03979239  0.75934815    -0.00200
C1053       C  0.07861764  0.14610488  0.20290198     0.01200
C1054       C  0.10487733  0.15871546  0.24001235     0.04000
C1055       C  0.08886547  0.18351368  0.27629970    -0.12000
C1056       C  0.05238260  0.21234920  0.27167768     0.23300
C1057       C  0.02724775  0.20642596  0.23168273    -0.12600
C1058       C  0.03712033  0.17092916  0.20022138     0.04700
C1059       C  0.04599824  0.25036561  0.30621531     0.27100
C1060       C  0.04013474  0.24160535  0.35297989    -0.13300
C1061       C  0.05129640  0.27414717  0.38589400     0.05200
C1062       C  0.06827510  0.31696571  0.37345515    -0.09300
C1063       C  0.05814625  0.32923003  0.32800001     0.06100
C1064       C  0.05278791  0.29596232  0.29437807    -0.13600
Br1065     Br  0.97821384  0.24541934  0.22003676    -0.05700
Br1066     Br  0.16629810  0.15093354  0.23929386    -0.00100
Br1067     Br  0.03136507  0.26165652  0.44554902     0.00400
Br1068     Br  0.06169328  0.31365010  0.23271760    -0.04000
Br1069     Br  0.99366770  0.16232716  0.15347616     0.00500
Br1070     Br  0.11872104  0.17611619  0.33190394    -0.03300
Br1071     Br  0.01953879  0.18407758  0.37447926    -0.04200
Br1072     Br  0.05199781  0.39163934  0.31074553    -0.00200
C1073       C  0.29538214  0.14364482  0.42195955     0.01200
C1074       C  0.30884701  0.18286097  0.44447287     0.04000
C1075       C  0.27664044  0.21461363  0.46022793    -0.12000
C1076       C  0.22983620  0.20904325  0.45243288     0.23300
C1077       C  0.21802472  0.16350658  0.44279177    -0.12600
C1078       C  0.25176622  0.13057843  0.43399320     0.04700
C1079       C  0.19688354  0.25007715  0.45264172     0.27100
C1080       C  0.15225205  0.25158541  0.47174640    -0.13300
C1081       C  0.12434957  0.29017878  0.46711939     0.05200
C1082       C  0.13500463  0.32273560  0.43601217    -0.09300
C1083       C  0.18141174  0.32972037  0.43495082     0.06100
C1084       C  0.21078732  0.29294314  0.43577328    -0.13600
Br1085     Br  0.15873747  0.14296678  0.43016049    -0.05700
Br1086     Br  0.36960416  0.18882088  0.46379098    -0.00100
Br1087     Br  0.09192091  0.31181897  0.51871382     0.00400
Br1088     Br  0.26487657  0.30707102  0.40505564    -0.04000
Br1089     Br  0.23905618  0.06866997  0.44424660     0.00500
Br1090     Br  0.29921460  0.26208621  0.49649813    -0.03300
Br1091     Br  0.12210424  0.20635494  0.50390117    -0.04200
Br1092     Br  0.20504418  0.38442320  0.45820342    -0.00200
C1093       C  0.29634178  0.09157875  0.35028067     0.01200
C1094       C  0.31181380  0.05488414  0.32227892     0.04000
C1095       C  0.28231833  0.03444753  0.28952060    -0.12000
C1096       C  0.24000958  0.05528970  0.27888693     0.23300
C1097       C  0.24110441  0.09953250  0.28955610    -0.12600
C1098       C  0.25691681  0.11249995  0.33104343     0.04700
C1099       C  0.19897164  0.04314695  0.24952260     0.27100
C1100       C  0.19972469  0.03695215  0.20180929    -0.13300
C1101       C  0.16068708  0.04597479  0.17567100     0.05200
C1102       C  0.12551777  0.07174077  0.19349421    -0.09300
C1103       C  0.11774742  0.06092907  0.23909626     0.06100
C1104       C  0.15476699  0.05076225  0.26758304    -0.13600
Br1105     Br  0.27117093  0.12879336  0.24173186    -0.05700
Br1106     Br  0.37476297  0.04120073  0.31621965    -0.00100
Br1107     Br  0.14441310  0.00581449  0.12825124     0.00400
Br1108     Br  0.14420296  0.06221749  0.33001636    -0.04000
Br1109     Br  0.22672121  0.16709419  0.34289231     0.00500
Br1110     Br  0.30789166  0.98944652  0.25278996    -0.03300
Br1111     Br  0.25261280  0.02449015  0.16802557    -0.04200
Br1112     Br  0.05759406  0.06134728  0.26256334    -0.00200
C1113       C  0.35608708  0.15045919  0.35944256     0.01200
C1114       C  0.40153894  0.16580066  0.36545694     0.04000
C1115       C  0.41620439  0.20477778  0.34062637    -0.12000
C1116       C  0.39462186  0.21639251  0.29910024     0.23300
C1117       C  0.36044278  0.18698741  0.28797712    -0.12600
C1118       C  0.33441238  0.17549373  0.32513629     0.04700
C1119       C  0.39833274  0.25905317  0.27079375     0.27100
C1120       C  0.38958213  0.30358467  0.28642952    -0.13300
C1121       C  0.38677840  0.33996318  0.25552158     0.05200
C1122       C  0.37720256  0.33142670  0.20994553    -0.09300
C1123       C  0.39634406  0.29021527  0.19413072     0.06100
C1124       C  0.40812965  0.25540145  0.22447075    -0.13600
Br1125     Br  0.37897562  0.13730105  0.25142225    -0.05700
Br1126     Br  0.44573478  0.13853547  0.40359286    -0.00100
Br1127     Br  0.42958634  0.38592812  0.26679435     0.00400
Br1128     Br  0.44514996  0.20694116  0.20315479    -0.04000
Br1129     Br  0.30776648  0.22928736  0.34698693     0.00500
Br1130     Br  0.45713395  0.24328128  0.36971413    -0.03300
Br1131     Br  0.38069077  0.31891232  0.34827615    -0.04200
Br1132     Br  0.40894449  0.28006874  0.13162666    -0.00200
C1133       C  0.30703467  0.39221602  0.20507033     0.01200
C1134       C  0.26248744  0.39840483  0.18901609     0.04000
C1135       C  0.22650882  0.40467700  0.21915703    -0.12000
C1136       C  0.23453345  0.40569295  0.26605081     0.23300
C1137       C  0.27947958  0.41079286  0.27999110    -0.12600
C1138       C  0.31437729  0.41010418  0.24818129     0.04700
C1139       C  0.19708296  0.39789732  0.29915929     0.27100
C1140       C  0.18547841  0.42735012  0.33453126    -0.13300
C1141       C  0.15209220  0.41589530  0.36694362     0.05200
C1142       C  0.13389748  0.37104598  0.36818020    -0.09300
C1143       C  0.15356106  0.34111037  0.33591224     0.06100
C1144       C  0.17588147  0.35667412  0.29837965    -0.13600
Br1145     Br  0.29715413  0.40908109  0.34197104    -0.05700
Br1146     Br  0.24918663  0.39803647  0.12628593    -0.00100
Br1147     Br  0.14205041  0.46202420  0.41107688     0.00400
Br1148     Br  0.17444689  0.32001336  0.24611888    -0.04000
Br1149     Br  0.35401435  0.45959889  0.25315760     0.00500
Br1150     Br  0.16659298  0.41558037  0.19567782    -0.03300
Br1151     Br  0.21587160  0.48342106  0.33975127    -0.04200
Br1152     Br  0.15747547  0.27687505  0.34300658    -0.00200
C1153       C  0.30829096  0.31690641  0.16743506     0.01200
C1154       C  0.28523932  0.29406766  0.20315039     0.04000
C1155       C  0.25650507  0.25816094  0.19541626    -0.12000
C1156       C  0.24838923  0.24164499  0.15261611     0.23300
C1157       C  0.27467995  0.25981790  0.11750412    -0.12600
C1158       C  0.30208569  0.29823738  0.12366914     0.04700
C1159       C  0.21087913  0.20759135  0.14599091     0.27100
C1160       C  0.21908293  0.16131870  0.13904467    -0.13300
C1161       C  0.18311680  0.13094499  0.13194811     0.05200
C1162       C  0.13711760  0.14348169  0.13963427    -0.09300
C1163       C  0.13031826  0.19111519  0.13711614     0.06100
C1164       C  0.16580271  0.22225870  0.14322616    -0.13600
Br1165     Br  0.28165194  0.22718743  0.06327426    -0.05700
Br1166     Br  0.28981312  0.30954425  0.26573835    -0.00100
Br1167     Br  0.19664473  0.08855509  0.08532312     0.00400
Br1168     Br  0.15364391  0.28575997  0.13762965    -0.04000
Br1169     Br  0.33073020  0.32126146  0.07028635     0.00500
Br1170     Br  0.23113219  0.22935277  0.24611193    -0.03300
Br1171     Br  0.27998149  0.13993865  0.13258799    -0.04200
Br1172     Br  0.07765587  0.21349286  0.10774574    -0.00200
loop_ 
_geom_bond_atom_site_label_1 
_geom_bond_atom_site_label_2 
_geom_bond_distance 
_geom_bond_site_symmetry_2 
_ccdc_geom_bond_type 
C1           C29   1.579       .  S
C1         C1122   1.604       .  S
C1         C1133   1.594       .  S
C1         C1153   1.603       .  S
C2           C78   1.603       .  S
C2         C1073   1.597       .  S
C2         C1093   1.628       .  S
C2         C1113   1.612       .  S
C3          C139   1.594       .  S
C3         C1053   1.621       .  S
C3         C1102   1.621       .  S
C3         C1162   1.642       .  S
C4          C176   1.572       .  S
C4         C1062   1.624       .  S
C4         C1082   1.596       .  S
C4         C1142   1.612       .  S
C5           C66   1.599       .  S
C5         C1002   1.638       .  S
C5         C1022   1.613       .  S
C5         C1042   1.607       .  S
C6          C162   1.594       .  S
C6          C953   1.602       .  S
C6          C973   1.570       .  S
C6         C1033   1.605       .  S
C7          C177   1.585       .  S
C7          C933   1.610       .  S
C7          C982   1.612       .  S
C7         C1013   1.616       .  S
C8           C17   1.597       .  S
C8          C942   1.618       .  S
C8          C962   1.617       .  S
C8          C993   1.605       .  S
N9           N10   1.336       .  A
N9           N15   1.322       .  A
N9          Mn38   2.331       .  S
N10          C17   1.371       .  A
N11          N13   1.322       .  A
N11          N12   1.332       .  A
N11         Mn27   2.299   1_556  S
N12          C18   1.370       .  A
N13          N14   1.330       .  A
N13         Mn38   2.236       .  S
N14          C18   1.358       .  A
N15          N16   1.333       .  A
N15         Mn27   2.257   1_556  S
N16          C17   1.362       .  A
C18         C107   1.571       .  S
N19          N25   1.321       .  A
N19          N20   1.342       .  A
N19         Mn49   2.334       .  S
N20          C28   1.378       .  A
N21          N22   1.333       .  A
N21          N23   1.322       .  A
N21         Mn27   2.308       .  S
N22          C29   1.369       .  A
N23          N24   1.329       .  A
N23         Mn49   2.243       .  S
N24          C29   1.361       .  A
N25          N26   1.331       .  A
N25         Mn27   2.257       .  S
N26          C28   1.360       .  A
Mn27        Cl51   2.591       .  S
C28          C54   1.607       .  S
N30          N31   1.334       .  A
N30          N36   1.318       .  A
N30         Mn38   2.330       .  S
N31          C39   1.374       .  A
N32          N34   1.323       .  A
N32          N33   1.337       .  A
N32         Mn50   2.343   1_556  S
N33          C40   1.374       .  A
N34          N35   1.335       .  A
N34         Mn38   2.254       .  S
N35          C40   1.363       .  A
N36          N37   1.325       .  A
N36         Mn50   2.200   1_556  S
N37          C39   1.351       .  A
Mn38        Cl51   2.614   1_556  S
C39         C115   1.584       .  S
C40         C103   1.609       .  S
N41          N42   1.339       .  A
N41          N47   1.320       .  A
N41         Mn49   2.337       .  S
N42          C52   1.374       .  A
N43          N44   1.337       .  A
N43          N45   1.321       .  A
N43         Mn50   2.337       .  S
N44          C53   1.376       .  A
N45          N46   1.328       .  A
N45         Mn49   2.215       .  S
N46          C53   1.354       .  A
N47          N48   1.330       .  A
N47         Mn50   2.236       .  S
N48          C52   1.357       .  A
Mn49        Cl51   2.616       .  S
Mn50        Cl51   2.585       .  S
C52         C166   1.595       .  S
C53         C113   1.581       .  S
C54         C873   1.598       .  S
C54         C893   1.613       .  S
C54         C922   1.631       .  S
C55         C127   1.597       .  S
C55         C833   1.638       .  S
C55         C862   1.621       .  S
C55         C913   1.601       .  S
C56         C188   1.600       .  S
C56         C822   1.622       .  S
C56         C842   1.629       .  S
C56         C902   1.630       .  S
C57          C77   1.606       .  S
C57         C813   1.639       .  S
C57         C853   1.595       .  S
C57         C882   1.595       .  S
N58          N59   1.340       .  A
N58          N64   1.324       .  A
N58         Mn87   2.299   1_545  S
N59          C66   1.370       .  A
N60          N62   1.322       .  A
N60          N61   1.329       .  A
N60         Mn76   2.235       .  S
N61          C67   1.357       .  A
N62          N63   1.335       .  A
N62         Mn87   2.302       .  S
N63          C67   1.370       .  A
N64          N65   1.331       .  A
N64         Mn76   2.305   1_545  S
N65          C66   1.364       .  A
C67         C108   1.567       .  S
N68          N74   1.322       .  A
N68          N69   1.340       .  A
N68         Mn98   2.299       .  S
N69          C77   1.375       .  A
N70          N71   1.339       .  A
N70          N72   1.319       .  A
N70         Mn76   2.301   1_545  S
N71          C78   1.374       .  A
N72          N73   1.328       .  A
N72         Mn98   2.259   1_545  S
N73          C78   1.357       .  A
N74          N75   1.333       .  A
N74         Mn76   2.295       .  S
N75          C77   1.364       .  A
Mn76       Cl100   2.590       .  S
N79          N80   1.336       .  A
N79          N85   1.320       .  A
N79         Mn87   2.270       .  S
N80          C88   1.366       .  A
N81          N83   1.324       .  A
N81          N82   1.334       .  A
N81         Mn99   2.282   1_545  S
N82          C89   1.366       .  A
N83          N84   1.342       .  A
N83         Mn87   2.330   1_545  S
N84          C89   1.375       .  A
N85          N86   1.333       .  A
N85         Mn99   2.299       .  S
N86          C88   1.370       .  A
Mn87       Cl100   2.618       .  S
C88         C117   1.597       .  S
C89         C105   1.601       .  S
N90          N91   1.331       .  A
N90          N96   1.322       .  A
N90         Mn98   2.269   1_545  S
N91         C101   1.364       .  A
N92          N93   1.323       .  A
N92          N94   1.318       .  A
N92         Mn99   2.272       .  S
N93         C102   1.357       .  A
N94          N95   1.337       .  A
N94         Mn98   2.271       .  S
N95         C102   1.366       .  A
N96          N97   1.331       .  A
N96         Mn99   2.280   1_545  S
N97         C101   1.364       .  A
Mn98       Cl100   2.623       .  S
Mn99       Cl100   2.583       .  S
C101        C164   1.574       .  S
C102        C111   1.592       .  S
C103        C762   1.617       .  S
C103        C773   1.593       .  S
C103        C793   1.622       .  S
C104        C198   1.597       .  S
C104        C713   1.599       .  S
C104        C742   1.620       .  S
C104        C802   1.587       .  S
C105        C693   1.635       .  S
C105        C722   1.598       .  S
C105        C753   1.624       .  S
C106        C163   1.586       .  S
C106        C702   1.632       .  S
C106        C733   1.596       .  S
C106        C782   1.632       .  S
C107        C633   1.590       .  S
C107        C653   1.596       .  S
C107        C673   1.634       .  S
C108        C602   1.609       .  S
C108        C613   1.594       .  S
C108        C682   1.596       .  S
C109        C187   1.593       .  S
C109        C573   1.626       .  S
C109        C593   1.610       .  S
C109        C642   1.607       .  S
C110        C150   1.584       .  S
C110        C582   1.617       .  S
C110        C622   1.630       .  S
C110        C662   1.647       .  S
C111        C513   1.595       .  S
C111        C533   1.624       .  S
C111        C562   1.623       .  S
C112        C211   1.588       .  S
C112        C473   1.643       .  S
C112        C493   1.591       .  S
C112        C553   1.598       .  S
C113        C462   1.593       .  S
C113        C482   1.610       .  S
C113        C522   1.647       .  S
C114        C128   1.589       .  S
C114        C453   1.637       .  S
C114        C502   1.617       .  S
C114        C542   1.608       .  S
C115        C393   1.607       .  S
C115        C422   1.616       .  S
C115        C433   1.621       .  S
C116        C212   1.596       .  S
C116        C353   1.655       .  S
C116        C382   1.618       .  S
C116        C413   1.616       .  S
C117        C333   1.617       .  S
C117        C362   1.616       .  S
C117        C402   1.636       .  S
C118        C149   1.595       .  S
C118        C342   1.645       .  S
C118        C373   1.617       .  S
C118        C442   1.617       .  S
N119        N120   1.337       .  A
N119        N125   1.321       .  A
N119       Mn148   2.325   1_455  S
N120        C127   1.375       .  A
N121        N123   1.318       .  A
N121        N122   1.337       .  A
N121       Mn137   2.293       .  S
N122        C128   1.374       .  A
N123        N124   1.327       .  A
N123       Mn148   2.248       .  S
N124        C128   1.354       .  A
N125        N126   1.330       .  A
N125       Mn137   2.245   1_455  S
N126        C127   1.359       .  A
N129        N135   1.321       .  A
N129        N130   1.334       .  A
N129       Mn159   2.296       .  S
N130        C138   1.371       .  A
N131        N132   1.330       .  A
N131        N133   1.323       .  A
N131       Mn137   2.291   1_445  S
N132        C139   1.365       .  A
N133        N134   1.343       .  A
N133       Mn159   2.301   1_455  S
N134        C139   1.371       .  A
N135        N136   1.329       .  A
N135       Mn137   2.257   1_545  S
N136        C138   1.359       .  A
Mn137      Cl161   2.592       .  S
C138        C165   1.588       .  S
N140        N141   1.337       .  A
N140        N146   1.324       .  A
N140       Mn148   2.310   1_556  S
N141        C149   1.370       .  A
N142        N144   1.316       .  A
N142        N143   1.336       .  A
N142       Mn160   2.274   1_455  S
N143        C150   1.369       .  A
N144        N145   1.325       .  A
N144       Mn148   2.258   1_456  S
N145        C150   1.350       .  A
N146        N147   1.339       .  A
N146       Mn160   2.309       .  S
N147        C149   1.370       .  A
Mn148      Cl161   2.596       .  S
N151        N152   1.327       .  A
N151        N157   1.321       .  A
N151       Mn159   2.268   1_456  S
N152        C162   1.361       .  A
N153        N154   1.331       .  A
N153        N155   1.323       .  A
N153       Mn160   2.273   1_545  S
N154        C163   1.362       .  A
N155        N156   1.336       .  A
N155       Mn159   2.300   1_556  S
N156        C163   1.368       .  A
N157        N158   1.338       .  A
N157       Mn160   2.300   1_445  S
N158        C162   1.372       .  A
Mn159      Cl161   2.618   1_545  S
Mn160      Cl161   2.598   1_556  S
C164        C273   1.620       .  S
C164        C302   1.595       .  S
C164        C313   1.588       .  S
C165        C233   1.606       .  S
C165        C253   1.608       .  S
C165        C322   1.626       .  S
C166        C222   1.612       .  S
C166        C242   1.640       .  S
C166        C282   1.595       .  S
C167        C199   1.570       .  S
C167        C213   1.624       .  S
C167        C262   1.642       .  S
C167        C293   1.594       .  S
N168        N169   1.335       .  A
N168        N174   1.314       .  A
N168       Mn197   2.294   1_455  S
N169        C176   1.374       .  A
N170        N172   1.322       .  A
N170        N171   1.330       .  A
N170       Mn186   2.306       .  S
N171        C177   1.368       .  A
N172        N173   1.336       .  A
N172       Mn197   2.266   1_455  S
N173        C177   1.364       .  A
N174        N175   1.319       .  A
N174       Mn186   2.200       .  S
N175        C176   1.343       .  A
N178        N184   1.317       .  A
N178        N179   1.329       .  A
N178       Mn208   2.310   1_455  S
N179        C187   1.363       .  A
N180        N181   1.343       .  A
N180        N182   1.324       .  A
N180       Mn186   2.336       .  S
N181        C188   1.376       .  A
N182        N183   1.331       .  A
N182       Mn208   2.279   1_455  S
N183        C188   1.360       .  A
N184        N185   1.333       .  A
N184       Mn186   2.226       .  S
N185        C187   1.360       .  A
Mn186      Cl210   2.601   1_455  S
N189        N190   1.336       .  A
N189        N195   1.320       .  A
N189       Mn197   2.315       .  S
N190        C198   1.371       .  A
N191        N193   1.318       .  A
N191        N192   1.332       .  A
N191       Mn209   2.335       .  S
N192        C199   1.368       .  A
N193        N194   1.328       .  A
N193       Mn197   2.187       .  S
N194        C199   1.352       .  A
N195        N196   1.331       .  A
N195       Mn209   2.250       .  S
N196        C198   1.363       .  A
Mn197      Cl210   2.605       .  S
N200        N201   1.339       .  A
N200        N206   1.324       .  A
N200       Mn208   2.340       .  S
N201        C211   1.376       .  A
N202        N203   1.338       .  A
N202        N204   1.324       .  A
N202       Mn209   2.323       .  S
N203        C212   1.372       .  A
N204        N205   1.336       .  A
N204       Mn208   2.283       .  S
N205        C212   1.365       .  A
N206        N207   1.333       .  A
N206       Mn209   2.251       .  S
N207        C211   1.359       .  A
Mn208      Cl210   2.598       .  S
Mn209      Cl210   2.593       .  S
C213        C214   1.431       .  A
C213        C218   1.402       .  A
C214        C215   1.436       .  A
C214       Br226   1.914       .  S
C215        C216   1.423       .  A
C215       Br230   1.889       .  S
C216        C217   1.403       .  A
C216        C219   1.533       .  S
C217        C218   1.388       .  A
C217       Br225   1.862       .  S
C218       Br229   1.930       .  S
C219        C220   1.412       .  A
C219        C224   1.422       .  A
C220        C221   1.419       .  A
C220       Br231   1.909       .  S
C221        C222   1.433       .  A
C221       Br227   1.931       .  S
C222        C223   1.415       .  A
C223        C224   1.427       .  A
C223       Br232   1.909       .  S
C224       Br228   1.921       .  S
C233        C234   1.410       .  A
C233        C238   1.427       .  A
C234        C235   1.425       .  A
C234       Br246   1.942       .  S
C235        C236   1.423       .  A
C235       Br250   1.871       .  S
C236        C237   1.421       .  A
C236        C239   1.556       .  S
C237        C238   1.422       .  A
C237       Br245   1.918       .  S
C238       Br249   1.923       .  S
C239        C240   1.429       .  A
C239        C244   1.428       .  A
C240        C241   1.435       .  A
C240       Br251   1.926       .  S
C241        C242   1.421       .  A
C241       Br247   1.926       .  S
C242        C243   1.439       .  A
C243        C244   1.431       .  A
C243       Br252   1.934       .  S
C244       Br248   1.940       .  S
C253        C254   1.443       .  A
C253        C258   1.442       .  A
C254        C255   1.406       .  A
C254       Br266   1.917       .  S
C255        C256   1.386       .  A
C255       Br270   1.906       .  S
C256        C257   1.409       .  A
C256        C259   1.526       .  S
C257        C258   1.429       .  A
C257       Br265   1.895       .  S
C258       Br269   1.932       .  S
C259        C260   1.418       .  A
C259        C264   1.414       .  A
C260        C261   1.413       .  A
C260       Br271   1.907       .  S
C261        C262   1.400       .  A
C261       Br267   1.913       .  S
C262        C263   1.430       .  A
C263        C264   1.431       .  A
C263       Br272   1.910       .  S
C264       Br268   1.926       .  S
C273        C274   1.432       .  A
C273        C278   1.428       .  A
C274        C275   1.420       .  A
C274       Br286   1.937       .  S
C275        C276   1.415       .  A
C275       Br290   1.927       .  S
C276        C277   1.419       .  A
C276        C279   1.529       .  S
C277        C278   1.430       .  A
C277       Br285   1.930       .  S
C278       Br289   1.915       .  S
C279        C280   1.406       .  A
C279        C284   1.391       .  A
C280        C281   1.419       .  A
C280       Br291   1.865       .  S
C281        C282   1.427       .  A
C281       Br287   1.902       .  S
C282        C283   1.428       .  A
C283        C284   1.390       .  A
C283       Br292   1.911       .  S
C284       Br288   1.864       .  S
C293        C294   1.415       .  A
C293        C298   1.428       .  A
C294        C295   1.391       .  A
C294       Br306   1.918       .  S
C295        C296   1.404       .  A
C295       Br310   1.932       .  S
C296        C297   1.413       .  A
C296        C299   1.493       .  S
C297        C298   1.423       .  A
C297       Br305   1.934       .  S
C298       Br309   1.930       .  S
C299        C300   1.378       .  A
C299        C304   1.409       .  A
C300        C301   1.390       .  A
C300       Br311   1.933       .  S
C301        C302   1.440       .  A
C301       Br307   1.878       .  S
C302        C303   1.421       .  A
C303        C304   1.412       .  A
C303       Br312   1.921       .  S
C304       Br308   1.865       .  S
C313        C314   1.390       .  A
C313        C318   1.423       .  A
C314        C315   1.420       .  A
C314       Br326   1.917   1_545  S
C315        C316   1.441       .  A
C315       Br330   1.913   1_545  S
C316        C317   1.431       .  A
C316        C319   1.538       .  S
C317        C318   1.409       .  A
C317       Br325   1.934       .  S
C318       Br329   1.930       .  S
C319        C320   1.411       .  A
C319        C324   1.417       .  A
C320        C321   1.421       .  A
C320       Br331   1.919   1_545  S
C321        C322   1.440       .  A
C321       Br327   1.922       .  S
C322        C323   1.438       .  A
C323        C324   1.428       .  A
C323       Br332   1.916       .  S
C324       Br328   1.923       .  S
C333        C334   1.434       .  A
C333        C338   1.437       .  A
C334        C335   1.433       .  A
C334       Br346   1.927       .  S
C335        C336   1.420       .  A
C335       Br350   1.903       .  S
C336        C337   1.390       .  A
C336        C339   1.529       .  S
C337        C338   1.409       .  A
C337       Br345   1.936       .  S
C338       Br349   1.884       .  S
C339        C340   1.411       .  A
C339        C344   1.408       .  A
C340        C341   1.422       .  A
C340       Br351   1.924       .  S
C341        C342   1.425       .  A
C341       Br347   1.912       .  S
C342        C343   1.445       .  A
C343        C344   1.429       .  A
C343       Br352   1.919       .  S
C344       Br348   1.932       .  S
C353        C354   1.438       .  A
C353        C358   1.424       .  A
C354        C355   1.457       .  A
C354       Br366   1.945       .  S
C355        C356   1.472       .  A
C355       Br370   1.906       .  S
C356        C357   1.401       .  A
C356        C359   1.580       .  S
C357        C358   1.389       .  A
C357       Br365   1.908       .  S
C358       Br369   1.880       .  S
C359        C360   1.431       .  A
C359        C364   1.460       .  A
C360        C361   1.433       .  A
C360       Br371   1.914       .  S
C361        C362   1.426       .  A
C361       Br367   1.924       .  S
C362        C363   1.394       .  A
C363        C364   1.421       .  A
C363       Br372   1.940       .  S
C364       Br368   1.905       .  S
C373        C374   1.401       .  A
C373        C378   1.410       .  A
C374        C375   1.422       .  A
C374       Br386   1.912       .  S
C375        C376   1.441       .  A
C375       Br390   1.926       .  S
C376        C377   1.421       .  A
C376        C379   1.539       .  S
C377        C378   1.417       .  A
C377       Br385   1.923       .  S
C378       Br389   1.914       .  S
C379        C380   1.399       .  A
C379        C384   1.431       .  A
C380        C381   1.404       .  A
C380       Br391   1.916       .  S
C381        C382   1.422       .  A
C381       Br387   1.908       .  S
C382        C383   1.438       .  A
C383        C384   1.442       .  A
C383       Br392   1.917       .  S
C384       Br388   1.927       .  S
C393        C394   1.430       .  A
C393        C398   1.441       .  A
C394        C395   1.387       .  A
C394       Br406   1.894       .  S
C395        C396   1.379       .  A
C395       Br410   1.887       .  S
C396        C397   1.405       .  A
C396        C399   1.527       .  S
C397        C398   1.425       .  A
C397       Br405   1.881       .  S
C398       Br409   1.931       .  S
C399        C400   1.409       .  A
C399        C404   1.412       .  A
C400        C401   1.414       .  A
C400       Br411   1.916       .  S
C401        C402   1.427       .  A
C401       Br407   1.911       .  S
C402        C403   1.438       .  A
C403        C404   1.438       .  A
C403       Br412   1.905       .  S
C404       Br408   1.929       .  S
C413        C414   1.452       .  A
C413        C418   1.379       .  A
C414        C415   1.464       .  A
C414       Br426   1.931       .  S
C415        C416   1.450       .  A
C415       Br430   1.909       .  S
C416        C417   1.373       .  A
C416        C419   1.540       .  S
C417        C418   1.400       .  A
C417       Br425   1.923       .  S
C418       Br429   1.921       .  S
C419        C420   1.429       .  A
C419        C424   1.422       .  A
C420        C421   1.415       .  A
C420       Br431   1.901       .  S
C421        C422   1.417       .  A
C421       Br427   1.937       .  S
C422        C423   1.428       .  A
C423        C424   1.430       .  A
C423       Br432   1.920       .  S
C424       Br428   1.924       .  S
C433        C434   1.435       .  A
C433        C438   1.421       .  A
C434        C435   1.417       .  A
C434       Br446   1.917       .  S
C435        C436   1.404       .  A
C435       Br450   1.902       .  S
C436        C437   1.426       .  A
C436        C439   1.539       .  S
C437        C438   1.424       .  A
C437       Br445   1.902   1_556  S
C438       Br449   1.931   1_556  S
C439        C440   1.406       .  A
C439        C444   1.444       .  A
C440        C441   1.384       .  A
C440       Br451   1.894       .  S
C441        C442   1.411       .  A
C441       Br447   1.924       .  S
C442        C443   1.411       .  A
C443        C444   1.433       .  A
C443       Br452   1.930   1_556  S
C444       Br448   1.923       .  S
C453        C454   1.420       .  A
C453        C458   1.430       .  A
C454        C455   1.428       .  A
C454       Br466   1.912       .  S
C455        C456   1.426       .  A
C455       Br470   1.920       .  S
C456        C457   1.421       .  A
C456        C459   1.557       .  S
C457        C458   1.425       .  A
C457       Br465   1.914       .  S
C458       Br469   1.926       .  S
C459        C460   1.433       .  A
C459        C464   1.424       .  A
C460        C461   1.423       .  A
C460       Br471   1.877       .  S
C461        C462   1.399       .  A
C461       Br467   1.938       .  S
C462        C463   1.421       .  A
C463        C464   1.419       .  A
C463       Br472   1.917       .  S
C464       Br468   1.905       .  S
C473        C474   1.436       .  A
C473        C478   1.445       .  A
C474        C475   1.436       .  A
C474       Br486   1.914       .  S
C475        C476   1.411       .  A
C475       Br490   1.927       .  S
C476        C477   1.407       .  A
C476        C479   1.525       .  S
C477        C478   1.423       .  A
C477       Br485   1.931       .  S
C478       Br489   1.921       .  S
C479        C480   1.417       .  A
C479        C484   1.372       .  A
C480        C481   1.438       .  A
C480       Br491   1.910       .  S
C481        C482   1.441       .  A
C481       Br487   1.923       .  S
C482        C483   1.421       .  A
C483        C484   1.383       .  A
C483       Br492   1.874       .  S
C484       Br488   1.891       .  S
C493        C494   1.432       .  A
C493        C498   1.443       .  A
C494        C495   1.422       .  A
C494       Br506   1.946       .  S
C495        C496   1.404       .  A
C495       Br510   1.870       .  S
C496        C497   1.383       .  A
C496        C499   1.507       .  S
C497        C498   1.401       .  A
C497       Br505   1.931       .  S
C498       Br509   1.903       .  S
C499        C500   1.413       .  A
C499        C504   1.404       .  A
C500        C501   1.418       .  A
C500       Br511   1.914       .  S
C501        C502   1.412       .  A
C501       Br507   1.921       .  S
C502        C503   1.427       .  A
C503        C504   1.416       .  A
C503       Br512   1.924       .  S
C504       Br508   1.927       .  S
C513        C514   1.421       .  A
C513        C518   1.433       .  A
C514        C515   1.419       .  A
C514       Br526   1.903       .  S
C515        C516   1.408       .  A
C515       Br530   1.872       .  S
C516        C517   1.401       .  A
C516        C519   1.534       .  S
C517        C518   1.393       .  A
C517       Br525   1.897       .  S
C518       Br529   1.926       .  S
C519        C520   1.414       .  A
C519        C524   1.405       .  A
C520        C521   1.426       .  A
C520       Br531   1.922       .  S
C521        C522   1.438       .  A
C521       Br527   1.929       .  S
C522        C523   1.447       .  A
C523        C524   1.436       .  A
C523       Br532   1.919       .  S
C524       Br528   1.935       .  S
C533        C534   1.405       .  A
C533        C538   1.441       .  A
C534        C535   1.425       .  A
C534       Br546   1.912       .  S
C535        C536   1.440       .  A
C535       Br550   1.927       .  S
C536        C537   1.423       .  A
C536        C539   1.557       .  S
C537        C538   1.430       .  A
C537       Br545   1.929       .  S
C538       Br549   1.937       .  S
C539        C540   1.449       .  A
C539        C544   1.414       .  A
C540        C541   1.442       .  A
C540       Br551   1.897       .  S
C541        C542   1.424       .  A
C541       Br547   1.948       .  S
C542        C543   1.400       .  A
C543        C544   1.385       .  A
C543       Br552   1.928       .  S
C544       Br548   1.872       .  S
C553        C554   1.421       .  A
C553        C558   1.389       .  A
C554        C555   1.422       .  A
C554       Br566   1.921       .  S
C555        C556   1.432       .  A
C555       Br570   1.914       .  S
C556        C557   1.460       .  A
C556        C559   1.572       .  S
C557        C558   1.417       .  A
C557       Br565   1.905       .  S
C558       Br569   1.939       .  S
C559        C560   1.457       .  A
C559        C564   1.426       .  A
C560        C561   1.430       .  A
C560       Br571   1.912       .  S
C561        C562   1.415       .  A
C561       Br567   1.949       .  S
C562        C563   1.430       .  A
C563        C564   1.420       .  A
C563       Br572   1.933       .  S
C564       Br568   1.917       .  S
C573        C574   1.454       .  A
C573        C578   1.424       .  A
C574        C575   1.435       .  A
C574       Br586   1.919   1_455  S
C575        C576   1.416       .  A
C575       Br590   1.917   1_455  S
C576        C577   1.393       .  A
C576        C579   1.516       .  S
C577        C578   1.390       .  A
C577       Br585   1.911       .  S
C578       Br589   1.877       .  S
C579        C580   1.412       .  A
C579        C584   1.410       .  A
C580        C581   1.419       .  A
C580       Br591   1.935       .  S
C581        C582   1.431       .  A
C581       Br587   1.920       .  S
C582        C583   1.427       .  A
C583        C584   1.417       .  A
C583       Br592   1.905       .  S
C584       Br588   1.931       .  S
C593        C594   1.429       .  A
C593        C598   1.420       .  A
C594        C595   1.421       .  A
C594       Br606   1.918       .  S
C595        C596   1.424       .  A
C595       Br610   1.911       .  S
C596        C597   1.428       .  A
C596        C599   1.563       .  S
C597        C598   1.422       .  A
C597       Br605   1.874       .  S
C598       Br609   1.930       .  S
C599        C600   1.441       .  A
C599        C604   1.445       .  A
C600        C601   1.422       .  A
C600       Br611   1.932       .  S
C601        C602   1.421       .  A
C601       Br607   1.934       .  S
C602        C603   1.398       .  A
C603        C604   1.424       .  A
C603       Br612   1.928       .  S
C604       Br608   1.920       .  S
C613        C614   1.437       .  A
C613        C618   1.429       .  A
C614        C615   1.399       .  A
C614       Br626   1.938       .  S
C615        C616   1.400       .  A
C615       Br630   1.895       .  S
C616        C617   1.410       .  A
C616        C619   1.530       .  S
C617        C618   1.421       .  A
C617       Br625   1.872       .  S
C618       Br629   1.928       .  S
C619        C620   1.414       .  A
C619        C624   1.429       .  A
C620        C621   1.412       .  A
C620       Br631   1.918       .  S
C621        C622   1.409       .  A
C621       Br627   1.923       .  S
C622        C623   1.426       .  A
C623        C624   1.436       .  A
C623       Br632   1.921       .  S
C624       Br628   1.926       .  S
C633        C634   1.440       .  A
C633        C638   1.424       .  A
C634        C635   1.394       .  A
C634       Br646   1.924       .  S
C635        C636   1.387       .  A
C635       Br650   1.894       .  S
C636        C637   1.405       .  A
C636        C639   1.510       .  S
C637        C638   1.417       .  A
C637       Br645   1.870       .  S
C638       Br649   1.924       .  S
C639        C640   1.417       .  A
C639        C644   1.410       .  A
C640        C641   1.421       .  A
C640       Br651   1.925       .  S
C641        C642   1.424       .  A
C641       Br647   1.927       .  S
C642        C643   1.415       .  A
C643        C644   1.409       .  A
C643       Br652   1.926       .  S
C644       Br648   1.922       .  S
C653        C654   1.400       .  A
C653        C658   1.427       .  A
C654        C655   1.417       .  A
C654       Br666   1.931   1_556  S
C655        C656   1.437       .  A
C655       Br670   1.908   1_556  S
C656        C657   1.408       .  A
C656        C659   1.514       .  S
C657        C658   1.396       .  A
C657       Br665   1.926       .  S
C658       Br669   1.921       .  S
C659        C660   1.414       .  A
C659        C664   1.373       .  A
C660        C661   1.443       .  A
C660       Br671   1.914   1_556  S
C661        C662   1.469       .  A
C661       Br667   1.932   1_556  S
C662        C663   1.424       .  A
C663        C664   1.390       .  A
C663       Br672   1.862       .  S
C664       Br668   1.893       .  S
C673        C674   1.437       .  A
C673        C678   1.437       .  A
C674        C675   1.423       .  A
C674       Br686   1.933       .  S
C675        C676   1.421       .  A
C675       Br690   1.912       .  S
C676        C677   1.425       .  A
C676        C679   1.557       .  S
C677        C678   1.436       .  A
C677       Br685   1.934       .  S
C678       Br689   1.910       .  S
C679        C680   1.445       .  A
C679        C684   1.419       .  A
C680        C681   1.440       .  A
C680       Br691   1.921       .  S
C681        C682   1.413       .  A
C681       Br687   1.912       .  S
C682        C683   1.410       .  A
C683        C684   1.393       .  A
C683       Br692   1.929       .  S
C684       Br688   1.899       .  S
C693        C694   1.449       .  A
C693        C698   1.442       .  A
C694        C695   1.441       .  A
C694       Br706   1.922       .  S
C695        C696   1.418       .  A
C695       Br710   1.927   1_545  S
C696        C697   1.384       .  A
C696        C699   1.512       .  S
C697        C698   1.398       .  A
C697       Br705   1.917       .  S
C698       Br709   1.924       .  S
C699        C700   1.421       .  A
C699        C704   1.407       .  A
C700        C701   1.422       .  A
C700       Br711   1.907       .  S
C701        C702   1.399       .  A
C701       Br707   1.895       .  S
C702        C703   1.431       .  A
C703        C704   1.405       .  A
C703       Br712   1.928       .  S
C704       Br708   1.933       .  S
C713        C714   1.395       .  A
C713        C718   1.443       .  A
C714        C715   1.389       .  A
C714       Br726   1.916       .  S
C715        C716   1.385       .  A
C715       Br730   1.918       .  S
C716        C717   1.447       .  A
C716        C719   1.529       .  S
C717        C718   1.456       .  A
C717       Br725   1.866       .  S
C718       Br729   1.925       .  S
C719        C720   1.429       .  A
C719        C724   1.427       .  A
C720        C721   1.417       .  A
C720       Br731   1.938       .  S
C721        C722   1.421       .  A
C721       Br727   1.918       .  S
C722        C723   1.420       .  A
C723        C724   1.424       .  A
C723       Br732   1.923       .  S
C724       Br728   1.933       .  S
C733        C734   1.406       .  A
C733        C738   1.407       .  A
C734        C735   1.405       .  A
C734       Br746   1.917       .  S
C735        C736   1.425       .  A
C735       Br750   1.922       .  S
C736        C737   1.410       .  A
C736        C739   1.504       .  S
C737        C738   1.419       .  A
C737       Br745   1.928       .  S
C738       Br749   1.912       .  S
C739        C740   1.371       .  A
C739        C744   1.407       .  A
C740        C741   1.398       .  A
C740       Br751   1.928       .  S
C741        C742   1.466       .  A
C741       Br747   1.931       .  S
C742        C743   1.432       .  A
C743        C744   1.414       .  A
C743       Br752   1.914       .  S
C744       Br748   1.904       .  S
C753        C754   1.410       .  A
C753        C758   1.456       .  A
C754        C755   1.396       .  A
C754       Br766   1.927       .  S
C755        C756   1.394       .  A
C755       Br770   1.926       .  S
C756        C757   1.447       .  A
C756        C759   1.542       .  S
C757        C758   1.464       .  A
C757       Br765   1.886       .  S
C758       Br769   1.937       .  S
C759        C760   1.419       .  A
C759        C764   1.428       .  A
C760        C761   1.430       .  A
C760       Br771   1.921       .  S
C761        C762   1.426       .  A
C761       Br767   1.922       .  S
C762        C763   1.425       .  A
C763        C764   1.433       .  A
C763       Br772   1.932       .  S
C764       Br768   1.925       .  S
C773        C774   1.444       .  A
C773        C778   1.401       .  A
C774        C775   1.448       .  A
C774       Br786   1.927   1_556  S
C775        C776   1.445       .  A
C775       Br790   1.901   1_556  S
C776        C777   1.383       .  A
C776        C779   1.527       .  S
C777        C778   1.377       .  A
C777       Br785   1.872       .  S
C778       Br789   1.915       .  S
C779        C780   1.417       .  A
C779        C784   1.417       .  A
C780        C781   1.421       .  A
C780       Br791   1.922       .  S
C781        C782   1.426       .  A
C781       Br787   1.920       .  S
C782        C783   1.428       .  A
C783        C784   1.423       .  A
C783       Br792   1.924       .  S
C784       Br788   1.926       .  S
C793        C794   1.430       .  A
C793        C798   1.435       .  A
C794        C795   1.434       .  A
C794       Br806   1.924       .  S
C795        C796   1.421       .  A
C795       Br810   1.890       .  S
C796        C797   1.409       .  A
C796        C799   1.552       .  S
C797        C798   1.389       .  A
C797       Br805   1.922       .  S
C798       Br809   1.915       .  S
C799        C800   1.425       .  A
C799        C804   1.437       .  A
C800        C801   1.419       .  A
C800       Br811   1.905       .  S
C801        C802   1.415       .  A
C801       Br807   1.929       .  S
C802        C803   1.424       .  A
C803        C804   1.422       .  A
C803       Br812   1.932       .  S
C804       Br808   1.942       .  S
C813        C814   1.437       .  A
C813        C818   1.446       .  A
C814        C815   1.412       .  A
C814       Br826   1.914       .  S
C815        C816   1.404       .  A
C815       Br830   1.921       .  S
C816        C817   1.445       .  A
C816        C819   1.566       .  S
C817        C818   1.446       .  A
C817       Br825   1.930       .  S
C818       Br829   1.942       .  S
C819        C820   1.434       .  A
C819        C824   1.438       .  A
C820        C821   1.426       .  A
C820       Br831   1.921       .  S
C821        C822   1.419       .  A
C821       Br827   1.924       .  S
C822        C823   1.399       .  A
C823        C824   1.422       .  A
C823       Br832   1.924       .  S
C824       Br828   1.898       .  S
C833        C834   1.448       .  A
C833        C838   1.449       .  A
C834        C835   1.402       .  A
C834       Br846   1.840       .  S
C835        C836   1.369       .  A
C835       Br850   1.952       .  S
C836        C837   1.401       .  A
C836        C839   1.498       .  S
C837        C838   1.431       .  A
C837       Br845   1.903   1_455  S
C838       Br849   1.924       .  S
C839        C840   1.401       .  A
C839        C844   1.411       .  A
C840        C841   1.403       .  A
C840       Br851   1.925       .  S
C841        C842   1.430       .  A
C841       Br847   1.926       .  S
C842        C843   1.422       .  A
C843        C844   1.416       .  A
C843       Br852   1.910   1_455  S
C844       Br848   1.918       .  S
C853        C854   1.444       .  A
C853        C858   1.429       .  A
C854        C855   1.430       .  A
C854       Br866   1.915       .  S
C855        C856   1.397       .  A
C855       Br870   1.871       .  S
C856        C857   1.367       .  A
C856        C859   1.526       .  S
C857        C858   1.380       .  A
C857       Br865   1.881       .  S
C858       Br869   1.917       .  S
C859        C860   1.421       .  A
C859        C864   1.409       .  A
C860        C861   1.439       .  A
C860       Br871   1.928       .  S
C861        C862   1.445       .  A
C861       Br867   1.934       .  S
C862        C863   1.438       .  A
C863        C864   1.412       .  A
C863       Br872   1.920       .  S
C864       Br868   1.921       .  S
C873        C874   1.392       .  A
C873        C878   1.419       .  A
C874        C875   1.424       .  A
C874       Br886   1.926       .  S
C875        C876   1.451       .  A
C875       Br890   1.923       .  S
C876        C877   1.422       .  A
C876        C879   1.553       .  S
C877        C878   1.414       .  A
C877       Br885   1.909       .  S
C878       Br889   1.923       .  S
C879        C880   1.443       .  A
C879        C884   1.417       .  A
C880        C881   1.435       .  A
C880       Br891   1.918       .  S
C881        C882   1.410       .  A
C881       Br887   1.950       .  S
C882        C883   1.420       .  A
C883        C884   1.416       .  A
C883       Br892   1.919       .  S
C884       Br888   1.917       .  S
C893        C894   1.427       .  A
C893        C898   1.451       .  A
C894        C895   1.426       .  A
C894       Br906   1.937       .  S
C895        C896   1.408       .  A
C895       Br910   1.846       .  S
C896        C897   1.395       .  A
C896        C899   1.544       .  S
C897        C898   1.415       .  A
C897       Br905   1.914       .  S
C898       Br909   1.926       .  S
C899        C900   1.426       .  A
C899        C904   1.412       .  A
C900        C901   1.436       .  A
C900       Br911   1.928       .  S
C901        C902   1.421       .  A
C901       Br907   1.929       .  S
C902        C903   1.425       .  A
C903        C904   1.428       .  A
C903       Br912   1.927       .  S
C904       Br908   1.925       .  S
C913        C914   1.423       .  A
C913        C918   1.450       .  A
C914        C915   1.388       .  A
C914       Br926   1.928       .  S
C915        C916   1.407       .  A
C915       Br930   1.933       .  S
C916        C917   1.458       .  A
C916        C919   1.555       .  S
C917        C918   1.454       .  A
C917       Br925   1.906       .  S
C918       Br929   1.954       .  S
C919        C920   1.435       .  A
C919        C924   1.429       .  A
C920        C921   1.438       .  A
C920       Br931   1.939       .  S
C921        C922   1.434       .  A
C921       Br927   1.918       .  S
C922        C923   1.429       .  A
C923        C924   1.415       .  A
C923       Br932   1.934       .  S
C924       Br928   1.929       .  S
C933        C934   1.454       .  A
C933        C938   1.414       .  A
C934        C935   1.447       .  A
C934       Br946   1.939       .  S
C935        C936   1.427       .  A
C935       Br950   1.912       .  S
C936        C937   1.385       .  A
C936        C939   1.533       .  S
C937        C938   1.407       .  A
C937       Br945   1.902       .  S
C938       Br949   1.907       .  S
C939        C940   1.416       .  A
C939        C944   1.421       .  A
C940        C941   1.422       .  A
C940       Br951   1.915       .  S
C941        C942   1.435       .  A
C941       Br947   1.934       .  S
C942        C943   1.426       .  A
C943        C944   1.431       .  A
C943       Br952   1.917       .  S
C944       Br948   1.920       .  S
C953        C954   1.437       .  A
C953        C958   1.419       .  A
C954        C955   1.435       .  A
C954       Br966   1.912   1_556  S
C955        C956   1.414       .  A
C955       Br970   1.850   1_556  S
C956        C957   1.390       .  A
C956        C959   1.522       .  S
C957        C958   1.385       .  A
C957       Br965   1.899       .  S
C958       Br969   1.910       .  S
C959        C960   1.425       .  A
C959        C964   1.413       .  A
C960        C961   1.420       .  A
C960       Br971   1.928       .  S
C961        C962   1.417       .  A
C961       Br967   1.903   1_556  S
C962        C963   1.431       .  A
C963        C964   1.423       .  A
C963       Br972   1.916       .  S
C964       Br968   1.932       .  S
C973        C974   1.417       .  A
C973        C978   1.415       .  A
C974        C975   1.414       .  A
C974       Br986   1.951       .  S
C975        C976   1.436       .  A
C975       Br990   1.908   1_455  S
C976        C977   1.434       .  A
C976        C979   1.550       .  S
C977        C978   1.423       .  A
C977       Br985   1.934       .  S
C978       Br989   1.939       .  S
C979        C980   1.404       .  A
C979        C984   1.426       .  A
C980        C981   1.383       .  A
C980       Br991   1.905       .  S
C981        C982   1.427       .  A
C981       Br987   1.920       .  S
C982        C983   1.439       .  A
C983        C984   1.445       .  A
C983       Br992   1.914       .  S
C984       Br988   1.924   1_455  S
C993        C994   1.432       .  A
C993        C998   1.436       .  A
C994        C995   1.420       .  A
C994      Br1006   1.921       .  S
C995        C996   1.405       .  A
C995      Br1010   1.877       .  S
C996        C997   1.398       .  A
C996        C999   1.539       .  S
C997        C998   1.402       .  A
C997      Br1005   1.885       .  S
C998      Br1009   1.925       .  S
C999       C1000   1.416       .  A
C999       C1004   1.415       .  A
C1000      C1001   1.441       .  A
C1000     Br1011   1.940       .  S
C1001      C1002   1.443       .  A
C1001     Br1007   1.924       .  S
C1002      C1003   1.419       .  A
C1003      C1004   1.425       .  A
C1003     Br1012   1.921       .  S
C1004     Br1008   1.918       .  S
C1013      C1014   1.415       .  A
C1013      C1018   1.440       .  A
C1014      C1015   1.426       .  A
C1014     Br1026   1.936       .  S
C1015      C1016   1.432       .  A
C1015     Br1030   1.905       .  S
C1016      C1017   1.418       .  A
C1016      C1019   1.553       .  S
C1017      C1018   1.434       .  A
C1017     Br1025   1.927       .  S
C1018     Br1029   1.930       .  S
C1019      C1020   1.425       .  A
C1019      C1024   1.387       .  A
C1020      C1021   1.429       .  A
C1020     Br1031   1.892       .  S
C1021      C1022   1.442       .  A
C1021     Br1027   1.914       .  S
C1022      C1023   1.424       .  A
C1023      C1024   1.399       .  A
C1023     Br1032   1.903       .  S
C1024     Br1028   1.863       .  S
C1033      C1034   1.446       .  A
C1033      C1038   1.424       .  A
C1034      C1035   1.401       .  A
C1034     Br1046   1.917       .  S
C1035      C1036   1.402       .  A
C1035     Br1050   1.944       .  S
C1036      C1037   1.432       .  A
C1036      C1039   1.535       .  S
C1037      C1038   1.433       .  A
C1037     Br1045   1.909       .  S
C1038     Br1049   1.936       .  S
C1039      C1040   1.425       .  A
C1039      C1044   1.420       .  A
C1040      C1041   1.426       .  A
C1040     Br1051   1.922       .  S
C1041      C1042   1.431       .  A
C1041     Br1047   1.932       .  S
C1042      C1043   1.418       .  A
C1043      C1044   1.417       .  A
C1043     Br1052   1.918       .  S
C1044     Br1048   1.916       .  S
C1053      C1054   1.415       .  A
C1053      C1058   1.442       .  A
C1054      C1055   1.394       .  A
C1054     Br1066   1.853       .  S
C1055      C1056   1.390       .  A
C1055     Br1070   1.897       .  S
C1056      C1057   1.425       .  A
C1056      C1059   1.544       .  S
C1057      C1058   1.445       .  A
C1057     Br1065   1.895   1_455  S
C1058     Br1069   1.931   1_455  S
C1059      C1060   1.429       .  A
C1059      C1064   1.420       .  A
C1060      C1061   1.426       .  A
C1060     Br1071   1.936       .  S
C1061      C1062   1.427       .  A
C1061     Br1067   1.912       .  S
C1062      C1063   1.435       .  A
C1063      C1064   1.424       .  A
C1063     Br1072   1.935       .  S
C1064     Br1068   1.930       .  S
C1073      C1074   1.414       .  A
C1073      C1078   1.414       .  A
C1074      C1075   1.424       .  A
C1074     Br1086   1.923       .  S
C1075      C1076   1.435       .  A
C1075     Br1090   1.916       .  S
C1076      C1077   1.437       .  A
C1076      C1079   1.563       .  S
C1077      C1078   1.426       .  A
C1077     Br1085   1.926       .  S
C1078     Br1089   1.912       .  S
C1079      C1080   1.454       .  A
C1079      C1084   1.437       .  A
C1080      C1081   1.421       .  A
C1080     Br1091   1.889       .  S
C1081      C1082   1.379       .  A
C1081     Br1087   1.928       .  S
C1082      C1083   1.410       .  A
C1083      C1084   1.398       .  A
C1083     Br1092   1.919       .  S
C1084     Br1088   1.911       .  S
C1093      C1094   1.450       .  A
C1093      C1098   1.448       .  A
C1094      C1095   1.459       .  A
C1094     Br1106   1.934       .  S
C1095      C1096   1.441       .  A
C1095     Br1110   1.890   1_545  S
C1096      C1097   1.359       .  A
C1096      C1099   1.559       .  S
C1097      C1098   1.384       .  A
C1097     Br1105   1.900       .  S
C1098     Br1109   1.887       .  S
C1099      C1100   1.436       .  A
C1099      C1104   1.445       .  A
C1100      C1101   1.430       .  A
C1100     Br1111   1.910       .  S
C1101      C1102   1.402       .  A
C1101     Br1107   1.924       .  S
C1102      C1103   1.416       .  A
C1103      C1104   1.428       .  A
C1103     Br1112   1.933       .  S
C1104     Br1108   1.919       .  S
C1113      C1114   1.454       .  A
C1113      C1118   1.418       .  A
C1114      C1115   1.447       .  A
C1114     Br1126   1.919       .  S
C1115      C1116   1.438       .  A
C1115     Br1130   1.903       .  S
C1116      C1117   1.398       .  A
C1116      C1119   1.528       .  S
C1117      C1118   1.398       .  A
C1117     Br1125   1.919       .  S
C1118     Br1129   1.900       .  S
C1119      C1120   1.430       .  A
C1119      C1124   1.416       .  A
C1120      C1121   1.422       .  A
C1120     Br1131   1.919       .  S
C1121      C1122   1.415       .  A
C1121     Br1127   1.920       .  S
C1122      C1123   1.431       .  A
C1123      C1124   1.416       .  A
C1123     Br1132   1.926       .  S
C1124     Br1128   1.920       .  S
C1133      C1134   1.430       .  A
C1133      C1138   1.413       .  A
C1134      C1135   1.414       .  A
C1134     Br1146   1.914       .  S
C1135      C1136   1.420       .  A
C1135     Br1150   1.953       .  S
C1136      C1137   1.421       .  A
C1136      C1139   1.513       .  S
C1137      C1138   1.411       .  A
C1137     Br1145   1.925       .  S
C1138     Br1149   1.912       .  S
C1139      C1140   1.415       .  A
C1139      C1144   1.390       .  A
C1140      C1141   1.433       .  A
C1140     Br1151   1.920       .  S
C1141      C1142   1.450       .  A
C1141     Br1147   1.928       .  S
C1142      C1143   1.436       .  A
C1143      C1144   1.384       .  A
C1143     Br1152   1.927       .  S
C1144     Br1148   1.908       .  S
C1153      C1154   1.441       .  A
C1153      C1158   1.435       .  A
C1154      C1155   1.402       .  A
C1154     Br1166   1.930       .  S
C1155      C1156   1.393       .  A
C1155     Br1170   1.898       .  S
C1156      C1157   1.419       .  A
C1156      C1159   1.538       .  S
C1157      C1158   1.430       .  A
C1157     Br1165   1.901       .  S
C1158     Br1169   1.935       .  S
C1159      C1160   1.414       .  A
C1159      C1164   1.418       .  A
C1160      C1161   1.433       .  A
C1160     Br1171   1.936       .  S
C1161      C1162   1.443       .  A
C1161     Br1167   1.922       .  S
C1162      C1163   1.433       .  A
C1163      C1164   1.433       .  A
C1163     Br1172   1.919       .  S
C1164     Br1168   1.930       .  S
