geometry optimzed in LAMMPS
_audit_creation_date              2020-11-30 
_audit_creation_method            'lammps2cif' 
_symmetry_space_group_name_H-M    'P1' 
_symmetry_Int_Tables_number       1 
_symmetry_cell_setting            triclinic 
loop_ 
_symmetry_equiv_pos_as_xyz 
  x,y,z 
_cell_length_a                    43.93142152 
_cell_length_b                    43.79712161133642 
_cell_length_c                    43.834807185026115 
_cell_angle_alpha                 89.99113498545664 
_cell_angle_beta                  89.95863303281496 
_cell_angle_gamma                 89.94685398407981 
loop_ 
_atom_site_label 
_atom_site_type_symbol 
_atom_site_fract_x 
_atom_site_fract_y 
_atom_site_fract_z 
_atom_site_charge 
O1          O  0.00019959  0.04970510  0.08682843    -0.80500
O2          O  0.00009927  0.04990021  0.41310377    -0.82000
O3          O  0.05040768  0.08639705  0.00049288    -0.79000
O4          O  0.45044697  0.08737903  0.99855320    -0.77400
O5          O  0.41358848  0.05065072  0.99881195    -0.79200
O6          O  0.08691118  0.04926007  0.99985249    -0.80200
O7          O  0.00085070  0.08668511  0.45000176    -0.81500
O8          O  0.00017170  0.08668402  0.05010470    -0.81800
Eu9        Eu  0.00017131  0.06173318  0.99982808     2.39200
O10         O  0.46943305  0.03113670  0.46903025    -0.89300
O11         O  0.03111155  0.03060539  0.03051358    -0.92900
C12         C  0.00012659  0.07788153  0.07824486     1.01800
C13         C  0.00052708  0.07803707  0.42186973     1.01600
C14         C  0.07844690  0.07747260  0.00038495     1.01600
C15         C  0.42234564  0.07879064  0.99826195     0.99400
H16         H  0.04397456  0.04338903  0.45599760     0.29200
O17         O  0.03122355  0.03073485  0.46872502    -1.01700
H18         H  0.45639517  0.04392818  0.04376653     0.29200
O19         O  0.46905057  0.03114789  0.03102857    -1.04200
O20         O  0.99983028  0.44941450  0.41364766    -0.81400
O21         O  0.99959044  0.44987492  0.08730830    -0.81000
O22         O  0.08680483  0.99959985  0.44923193    -0.79400
O23         O  0.41322317  0.99993642  0.44995180    -0.82800
O24         O  0.41351249  0.99960110  0.05035469    -0.80600
O25         O  0.08683978  0.99975345  0.04906977    -0.79300
O26         O  0.04969450  0.41256787  0.99991909    -0.80800
O27         O  0.44960007  0.41293788  0.00090927    -0.82700
O28         O  0.08658742  0.44924228  0.99902155    -0.79400
O29         O  0.41310226  0.45009978  0.00099092    -0.82100
O30         O  0.04980334  0.99894198  0.41259057    -0.77800
O31         O  0.05035061  0.00011507  0.08620407    -0.77900
O32         O  0.45038842  0.99909049  0.08703911    -0.77500
O33         O  0.44978660  0.99988457  0.41291619    -0.81000
O34         O  0.00007384  0.41248203  0.45047665    -0.80400
O35         O  0.99878569  0.41292483  0.05052767    -0.78800
Eu36       Eu  0.99994336  0.99978940  0.43805736     2.39800
Eu37       Eu  0.00015218  0.99978849  0.06153730     2.39600
Eu38       Eu  0.06147518  0.99943709  0.99918547     2.38400
Eu39       Eu  0.43809851  0.00023611  0.00006551     2.39900
Eu40       Eu  0.99979748  0.43780167  0.00038053     2.39800
O41         O  0.46925743  0.46907761  0.03126365    -0.93200
O42         O  0.03048936  0.46856122  0.46898437    -0.92100
C43         C  0.00000777  0.42126886  0.42236050     1.02000
C44         C  0.99880126  0.42172465  0.07862210     1.00700
C45         C  0.07792421  0.99917003  0.42113940     1.00100
C46         C  0.42169830  0.99977253  0.42173770     1.02100
C47         C  0.42229013  0.99906650  0.07845977     1.01000
C48         C  0.07837719  0.00003621  0.07727171     0.99900
C49         C  0.07778672  0.42113184  0.99927439     0.99900
C50         C  0.42155482  0.42186460  0.00110344     1.02500
H51         H  0.04384963  0.45567424  0.04383438     0.29900
O52         O  0.03118988  0.46846901  0.03114779    -1.05400
H53         H  0.45584132  0.45605376  0.45663281     0.32000
O54         O  0.46862647  0.46878030  0.46922943    -1.07900
O55         O  0.00012911  0.20039832  0.16301775    -0.80500
O56         O  0.99956860  0.19910372  0.33647137    -0.82000
O57         O  0.04987741  0.16343028  0.24873076    -0.79000
O58         O  0.44995569  0.16309131  0.25084171    -0.77400
O59         O  0.41307893  0.19984469  0.25112048    -0.79200
O60         O  0.08659329  0.20027942  0.24967772    -0.80200
O61         O  0.00011243  0.16250271  0.29940317    -0.81500
O62         O  0.99985571  0.16331285  0.19962240    -0.81800
Eu63       Eu  0.99987729  0.18826500  0.24981603     2.39200
O64         O  0.46875494  0.21869879  0.28108047    -0.89300
O65         O  0.03080182  0.21955925  0.21932862    -0.92900
C66         C  0.00001586  0.17217989  0.17151900     1.01800
C67         C  0.99989852  0.17099959  0.32756991     1.01600
C68         C  0.07792736  0.17211186  0.24888820     1.01600
C69         C  0.42185028  0.17170030  0.25125259     0.99400
H70         H  0.04357589  0.20603735  0.29393866     0.29200
O71         O  0.03082104  0.21877812  0.28129237    -1.01700
H72         H  0.45609958  0.20634027  0.20630006     0.29200
O73         O  0.46876590  0.21908488  0.21899876    -1.04200
O74         O  0.00021321  0.29928494  0.33768980    -0.81400
O75         O  0.99849454  0.30066408  0.16369048    -0.81000
O76         O  0.08605967  0.25127929  0.30118568    -0.79400
O77         O  0.41284294  0.25015932  0.30036442    -0.82800
O78         O  0.41293519  0.24988522  0.20028088    -0.80600
O79         O  0.08671457  0.25052756  0.20085640    -0.79300
O80         O  0.04933056  0.33740281  0.25107637    -0.80800
O81         O  0.44948301  0.33696372  0.24996605    -0.82700
O82         O  0.08625704  0.30069155  0.25111690    -0.79400
O83         O  0.41292191  0.29996093  0.24937716    -0.82100
O84         O  0.04911360  0.25059242  0.33781635    -0.77800
O85         O  0.05015434  0.25040690  0.16383190    -0.77900
O86         O  0.44960608  0.25018281  0.16334278    -0.77500
O87         O  0.44961184  0.24963447  0.33713126    -0.81000
O88         O  0.99982471  0.33645011  0.30109749    -0.80400
O89         O  0.99893058  0.33729355  0.20081984    -0.78800
Eu90       Eu  0.99955293  0.24956317  0.31210196     2.39800
Eu91       Eu  0.99974780  0.25038298  0.18841877     2.39600
Eu92       Eu  0.06143986  0.25039911  0.25071312     2.38400
Eu93       Eu  0.43800928  0.24993495  0.25029813     2.39900
Eu94       Eu  0.99950473  0.31194441  0.25070798     2.39800
O95         O  0.46877587  0.28113587  0.21950922    -0.93200
O96         O  0.03037062  0.28103876  0.28167408    -0.92100
C97         C  0.00024033  0.32747465  0.32916447     1.02000
C98         C  0.99850495  0.32875132  0.17265129     1.00700
C99         C  0.07722830  0.25130773  0.32932507     1.00100
C100        C  0.42154109  0.25003942  0.32850586     1.02100
C101        C  0.42150903  0.24994815  0.17211526     1.01000
C102        C  0.07821880  0.25050384  0.17268892     0.99900
C103        C  0.07746021  0.32884821  0.25120486     0.99900
C104        C  0.42144800  0.32814050  0.24937548     1.02500
H105        H  0.04323491  0.29421659  0.20690192     0.29900
O106        O  0.03060066  0.28135090  0.21953375    -1.05400
H107        H  0.45583852  0.29360795  0.29428471     0.32000
O108        O  0.46855616  0.28091001  0.28154496    -1.07900
O109        O  0.33677586  0.49944434  0.19958805    -0.80500
O110        O  0.16329096  0.50053987  0.19972519    -0.82000
O111        O  0.25172330  0.44976712  0.16263920    -0.79000
O112        O  0.24902655  0.05037946  0.16245945    -0.77400
O113        O  0.25071061  0.08720937  0.19948744    -0.79200
O114        O  0.25000974  0.41287671  0.19962493    -0.80200
O115        O  0.19991228  0.50009335  0.16271548    -0.81500
O116        O  0.30005779  0.49962400  0.16272286    -0.81800
Eu117      Eu  0.25000128  0.50006039  0.18765150     2.39200
O118        O  0.21889660  0.03133554  0.21849734    -0.89300
O119        O  0.28081300  0.46925909  0.21876505    -0.92900
C120        C  0.32811522  0.49930631  0.17143680     1.01800
C121        C  0.17185726  0.50038727  0.17156925     1.01600
C122        C  0.25117385  0.42165178  0.17152908     1.01600
C123        C  0.24995963  0.07844357  0.17138748     0.99400
H124        H  0.20631054  0.45632522  0.20586048     0.29200
O125        O  0.21897920  0.46907514  0.21855461    -1.01700
H126        H  0.29354231  0.04400871  0.20552000     0.29200
O127        O  0.28076522  0.03131966  0.21818844    -1.04200
O128        O  0.16290246  0.50007659  0.29968319    -0.81400
O129        O  0.33666653  0.50014605  0.29969083    -0.81000
O130        O  0.19989454  0.41331040  0.25017221    -0.79400
O131        O  0.20024019  0.08754358  0.24866739    -0.82800
O132        O  0.29951769  0.08740694  0.25038929    -0.80600
O133        O  0.30024811  0.41344893  0.24890944    -0.79300
O134        O  0.24872037  0.44978857  0.33676176    -0.80800
O135        O  0.25079599  0.05018905  0.33663491    -0.82700
O136        O  0.24940926  0.41301262  0.29979137    -0.79400
O137        O  0.25050260  0.08697079  0.29972467    -0.82100
O138        O  0.16310159  0.45016344  0.25032036    -0.77800
O139        O  0.33682012  0.45046152  0.24915299    -0.77900
O140        O  0.33626498  0.05054688  0.25018595    -0.77500
O141        O  0.16335688  0.05086451  0.24880162    -0.81000
O142        O  0.19967663  0.50023778  0.33649651    -0.80400
O143        O  0.30001813  0.49970848  0.33665021    -0.78800
Eu144      Eu  0.18826013  0.50027148  0.24970935     2.39800
Eu145      Eu  0.31159938  0.50032302  0.24964818     2.39600
Eu146      Eu  0.24996938  0.43820690  0.24963617     2.38400
Eu147      Eu  0.24990383  0.06204022  0.24952279     2.39900
Eu148      Eu  0.24988946  0.49999658  0.31162678     2.39800
O149        O  0.28072795  0.03118025  0.28058501    -0.93200
O150        O  0.21904163  0.46913610  0.28060771    -0.92100
C151        C  0.17158294  0.50018144  0.32782956     1.02000
C152        C  0.32810767  0.49984628  0.32786401     1.00700
C153        C  0.17180181  0.42197732  0.25041475     1.00100
C154        C  0.17215135  0.07899999  0.24849503     1.02100
C155        C  0.32757098  0.07873961  0.25057113     1.01000
C156        C  0.32830346  0.42229373  0.24887119     0.99900
C157        C  0.24884026  0.42163379  0.32796473     0.99900
C158        C  0.25086981  0.07835460  0.32788677     1.02500
H159        H  0.29359692  0.45624762  0.29334307     0.29900
O160        O  0.28092286  0.46903874  0.28066969    -1.05400
H161        H  0.20618886  0.04419539  0.29333763     0.32000
O162        O  0.21882235  0.03137048  0.28063907    -1.07900
O163        O  0.19981436  0.16307361  0.50097070    -0.80500
O164        O  0.20030434  0.33710159  0.50090376    -0.82000
O165        O  0.16297942  0.25032472  0.05042157    -0.79000
O166        O  0.16284763  0.25139305  0.45075668    -0.77400
O167        O  0.19950766  0.25126267  0.41382725    -0.79200
O168        O  0.19962593  0.24983540  0.08733333    -0.80200
O169        O  0.16348496  0.30035262  0.50055963    -0.81500
O170        O  0.16321715  0.20010659  0.50147656    -0.81800
Eu171      Eu  0.18829939  0.25018528  0.50074194     2.39200
O172        O  0.21909118  0.28117063  0.46983455    -0.89300
O173        O  0.21874260  0.21893509  0.03154310    -0.92900
C174        C  0.17177084  0.17190380  0.50142549     1.01800
C175        C  0.17221924  0.32848632  0.50069930     1.01600
C176        C  0.17153584  0.25015704  0.07856836     1.01600
C177        C  0.17145034  0.25171786  0.42255975     0.99400
H178        H  0.20632425  0.29383549  0.04417609     0.29200
O179        O  0.21896600  0.28102750  0.03147018    -1.01700
H180        H  0.20585479  0.20632493  0.45674040     0.29200
O181        O  0.21864850  0.21895712  0.46942497    -1.04200
O182        O  0.30023690  0.33680296  0.50110240    -0.81400
O183        O  0.29973491  0.16266332  0.49946481    -0.81000
O184        O  0.24977327  0.29998658  0.08749473    -0.79400
O185        O  0.24884300  0.30043470  0.41372462    -0.82800
O186        O  0.25020844  0.19978484  0.41360950    -0.80600
O187        O  0.25019407  0.19977403  0.08748693    -0.79300
O188        O  0.33673235  0.24928375  0.04974909    -0.80800
O189        O  0.33618386  0.25012426  0.44973314    -0.82700
O190        O  0.30022806  0.25000775  0.08686095    -0.79400
O191        O  0.29926659  0.25047382  0.41310525    -0.82100
O192        O  0.25135449  0.33695916  0.05058628    -0.77800
O193        O  0.24863739  0.16294278  0.05045691    -0.77900
O194        O  0.25019477  0.16295530  0.45047981    -0.77500
O195        O  0.24899285  0.33728124  0.45064630    -0.81000
O196        O  0.33677984  0.29971345  0.50108784    -0.80400
O197        O  0.33643580  0.19954062  0.49882178    -0.78800
Eu198      Eu  0.25022005  0.31189626  0.50071850     2.39800
Eu199      Eu  0.24975624  0.18808497  0.50043573     2.39600
Eu200      Eu  0.24985603  0.24985414  0.06232062     2.38400
Eu201      Eu  0.24957555  0.25012725  0.43860967     2.39900
Eu202      Eu  0.31154099  0.24972153  0.50007848     2.39800
O203        O  0.28051555  0.21891368  0.46924776    -0.93200
O204        O  0.28083218  0.28066804  0.03128792    -0.92100
C205        C  0.32827190  0.32792857  0.50136300     1.02000
C206        C  0.32781250  0.17136483  0.49875438     1.00700
C207        C  0.25066566  0.32810409  0.07867996     1.00100
C208        C  0.24857029  0.32859680  0.42248766     1.02100
C209        C  0.25041118  0.17159154  0.42234382     1.01000
C210        C  0.24930195  0.17170455  0.07856023     0.99900
C211        C  0.32827940  0.24961646  0.07795022     0.99900
C212        C  0.32737131  0.25045410  0.42162436     1.02500
H213        H  0.29337814  0.20582927  0.04379944     0.29900
O214        O  0.28063211  0.21866803  0.03124286    -1.05400
H215        H  0.29346924  0.29387483  0.45657185     0.32000
O216        O  0.28084119  0.28107858  0.46928015    -1.07900
C217        C  0.23295976  0.09823695  0.12093930    -0.21700
C218        C  0.25009049  0.10227809  0.14765386    -0.09700
C219        C  0.26711413  0.12919950  0.15141080     0.29200
C220        C  0.26653401  0.15183136  0.12894636    -0.21700
C221        C  0.24931515  0.14782938  0.10227025    -0.09700
C222        C  0.23246686  0.12081098  0.09843125     0.29200
F223        F  0.21478703  0.11663466  0.07338564    -0.20200
H224        H  0.21950348  0.07776862  0.11772983     0.17500
H225        H  0.28002663  0.17228079  0.13212659     0.17500
F226        F  0.28509317  0.13317778  0.17627933    -0.20200
C227        C  0.26876168  0.37822525  0.09879066    -0.21700
C228        C  0.25085584  0.35193062  0.10251014    -0.09700
C229        C  0.23323682  0.34868074  0.12911865     0.29200
C230        C  0.23370453  0.37132880  0.15158910    -0.21700
C231        C  0.25150609  0.39768213  0.14783314    -0.09700
C232        C  0.26925051  0.40087611  0.12129407     0.29200
F233        F  0.28776877  0.42539944  0.11755967    -0.20200
H234        H  0.28278046  0.38098743  0.07863317     0.17500
H235        H  0.21964382  0.36855980  0.17171732     0.17500
F236        F  0.21475098  0.32413940  0.13291207    -0.20200
C237        C  0.23949106  0.40496823  0.38191152    -0.21700
C238        C  0.24836150  0.39760664  0.35194792    -0.09700
C239        C  0.25680875  0.36723911  0.34542371     0.29200
C240        C  0.25664763  0.34509799  0.36840254    -0.21700
C241        C  0.24805106  0.35250451  0.39841266    -0.09700
C242        C  0.23917715  0.38276035  0.40487243     0.29200
F243        F  0.22958540  0.39089113  0.43318231    -0.20200
H244        H  0.23246126  0.42798274  0.38761356     0.17500
H245        H  0.26369534  0.32209443  0.36267621     0.17500
F246        F  0.26589634  0.35889099  0.31701536    -0.20200
C247        C  0.25134188  0.15584343  0.36738040    -0.21700
C248        C  0.25084284  0.14753169  0.39836626    -0.09700
C249        C  0.25068982  0.11618959  0.40586303     0.29200
C250        C  0.25088089  0.09405284  0.38289938    -0.21700
C251        C  0.25118075  0.10237885  0.35190317    -0.09700
C252        C  0.25149944  0.13370821  0.34442357     0.29200
F253        F  0.25187137  0.14323079  0.31495655    -0.20200
H254        H  0.25153502  0.17965354  0.36071617     0.17500
H255        H  0.25064092  0.07024055  0.38956026     0.17500
F256        F  0.25020931  0.10665722  0.43533282    -0.20200
C257        C  0.36699496  0.15614162  0.25065987    -0.21700
C258        C  0.39789157  0.14773628  0.25166254    -0.09700
C259        C  0.40530350  0.11641908  0.25280440     0.29200
C260        C  0.38237166  0.09434588  0.25248960    -0.21700
C261        C  0.35149342  0.10273444  0.25119247    -0.09700
C262        C  0.34405574  0.13407788  0.25047657     0.29200
F263        F  0.31468007  0.14368197  0.24945265    -0.20200
H264        H  0.36039168  0.17995964  0.24986908     0.17500
H265        H  0.38896542  0.07052717  0.25327740     0.17500
F266        F  0.43466559  0.10685949  0.25426848    -0.20200
C267        C  0.40559648  0.38303801  0.25121445    -0.21700
C268        C  0.39746527  0.35208486  0.24881810    -0.09700
C269        C  0.36637683  0.34457104  0.24603099     0.29200
C270        C  0.34423622  0.36747098  0.24601585    -0.21700
C271        C  0.35234702  0.39840604  0.24862443    -0.09700
C272        C  0.38346584  0.40594648  0.25109633     0.29200
F273        F  0.39276360  0.43538866  0.25365347    -0.20200
H274        H  0.42923429  0.38969594  0.25336254     0.17500
H275        H  0.32059632  0.36081719  0.24389030     0.17500
F276        F  0.35711801  0.31514806  0.24317906    -0.20200
C277        C  0.13278746  0.15649211  0.24813865    -0.21700
C278        C  0.10188707  0.14813257  0.24829373    -0.09700
C279        C  0.09443790  0.11680842  0.24805793     0.29200
C280        C  0.11735777  0.09470617  0.24799061    -0.21700
C281        C  0.14825704  0.10305104  0.24809452    -0.09700
C282        C  0.15571861  0.13437596  0.24800603     0.29200
F283        F  0.18511446  0.14390505  0.24789005    -0.20200
H284        H  0.13939558  0.18030869  0.24819722     0.17500
H285        H  0.11072771  0.07089588  0.24794978     0.17500
F286        F  0.06505092  0.10725044  0.24801304    -0.20200
C287        C  0.13227427  0.34458682  0.24906527    -0.21700
C288        C  0.10140734  0.35289120  0.25125561    -0.09700
C289        C  0.09402276  0.38417920  0.25333483     0.29200
C290        C  0.11695582  0.40629574  0.25303348    -0.21700
C291        C  0.14781810  0.39798175  0.25076390    -0.09700
C292        C  0.15520187  0.36668634  0.24884088     0.29200
F293        F  0.18453498  0.35717391  0.24657650    -0.20200
H294        H  0.13886185  0.32081127  0.24739426     0.17500
H295        H  0.11038780  0.43007830  0.25468647     0.17500
F296        F  0.06469691  0.39365231  0.25583095    -0.20200
C297        C  0.40568557  0.25089289  0.11715473    -0.21700
C298        C  0.39749722  0.24963531  0.14815922    -0.09700
C299        C  0.36630571  0.24805684  0.15571300     0.29200
C300        C  0.34418155  0.24800975  0.13282455    -0.21700
C301        C  0.35235443  0.24946975  0.10183192    -0.09700
C302        C  0.38354964  0.25080237  0.09425647     0.29200
F303        F  0.39292331  0.25220130  0.06477315    -0.20200
H304        H  0.42938530  0.25206255  0.11044328     0.17500
H305        H  0.32048746  0.24678766  0.13954723     0.17500
F306        F  0.35690353  0.24647404  0.18517798    -0.20200
C307        C  0.15563454  0.25220506  0.13347048    -0.21700
C308        C  0.14749023  0.25044963  0.10249977    -0.09700
C309        C  0.11630159  0.24902486  0.09494233     0.29200
C310        C  0.09414998  0.24908355  0.11782354    -0.21700
C311        C  0.10229239  0.25064935  0.14879763    -0.09700
C312        C  0.13346753  0.25234963  0.15635781     0.29200
F313        F  0.14279709  0.25426745  0.18581322    -0.20200
H314        H  0.17932220  0.25353683  0.14016055     0.17500
H315        H  0.07046504  0.24780373  0.11111275     0.17500
F316        F  0.10692914  0.24742685  0.06548346    -0.20200
C317        C  0.11650298  0.25172999  0.40690308    -0.21700
C318        C  0.14743486  0.25241991  0.39859785    -0.09700
C319        C  0.15488873  0.25349166  0.36729825     0.29200
C320        C  0.13200205  0.25327853  0.34517693    -0.21700
C321        C  0.10108845  0.25210963  0.35344350    -0.09700
C322        C  0.09359225  0.25161505  0.38476079     0.29200
F323        F  0.06418130  0.25083844  0.39425185    -0.20200
H324        H  0.10986481  0.25107746  0.43069285     0.17500
H325        H  0.13867480  0.25393103  0.32139832     0.17500
F326        F  0.18427352  0.25467142  0.35777671    -0.20200
C327        C  0.36668772  0.25121426  0.34417510    -0.21700
C328        C  0.39759844  0.25055618  0.35249452    -0.09700
C329        C  0.40507497  0.25057486  0.38378492     0.29200
C330        C  0.38217258  0.25060060  0.40589124    -0.21700
C331        C  0.35126065  0.25086719  0.39758234    -0.09700
C332        C  0.34377787  0.25151158  0.36629677     0.29200
F333        F  0.31438061  0.25247636  0.35681820    -0.20200
H334        H  0.36005569  0.25152808  0.32038638     0.17500
H335        H  0.38882505  0.25038974  0.42967500     0.17500
F336        F  0.43447434  0.25060456  0.39330009    -0.20200
C337        C  0.40537264  0.36715317  0.00563704    -0.21700
C338        C  0.39746141  0.39799036  0.00137180    -0.09700
C339        C  0.36619955  0.40573990  0.49885057     0.29200
C340        C  0.34409630  0.38282138  0.49891011    -0.21700
C341        C  0.35222327  0.35174137  0.00143413    -0.09700
C342        C  0.38316971  0.34429907  0.00573716     0.29200
F343        F  0.39218442  0.31500087  0.01031842    -0.20200
H344        H  0.42889211  0.36056695  0.00905983     0.17500
H345        H  0.32047087  0.38944933  0.49642889     0.17500
F346        F  0.35690352  0.43513706  0.49565384    -0.20200
C347        C  0.38272357  0.15600904  0.50125920    -0.21700
C348        C  0.35149928  0.14739487  0.99743329    -0.09700
C349        C  0.34443202  0.11615865  0.99427730     0.29200
C350        C  0.36756723  0.09424110  0.99439890    -0.21700
C351        C  0.39831377  0.10272744  0.99739305    -0.09700
C352        C  0.40588726  0.13410837  0.50115371     0.29200
F353        F  0.43507302  0.14374272  0.50443340    -0.20200
H354        H  0.38900453  0.17974381  0.50410610     0.17500
H355        H  0.36123691  0.07045807  0.99212131     0.17500
F356        F  0.31524855  0.10655694  0.99091869    -0.20200
C357        C  0.13257255  0.40554365  0.00054890    -0.21700
C358        C  0.10171309  0.39716216  0.99899983    -0.09700
C359        C  0.09435148  0.36597661  0.49886620     0.29200
C360        C  0.11736769  0.34396370  0.49910493    -0.21700
C361        C  0.14811392  0.35220033  0.99926458    -0.09700
C362        C  0.15551773  0.38348329  0.00067101     0.29200
F363        F  0.18486527  0.39301400  0.00235082    -0.20200
H364        H  0.13914002  0.42933639  0.00183654     0.17500
H365        H  0.11085796  0.32014534  0.49801610     0.17500
F366        F  0.06502433  0.35637316  0.49729081    -0.20200
C367        C  0.09436810  0.13223358  0.00425697    -0.21700
C368        C  0.10249073  0.10134802  0.00088573    -0.09700
C369        C  0.13404966  0.09399848  0.49927315     0.29200
C370        C  0.15611182  0.11694910  0.49951214    -0.21700
C371        C  0.14756553  0.14768497  0.00151802    -0.09700
C372        C  0.11648326  0.15512877  0.00465036     0.29200
F373        F  0.10721589  0.18448019  0.00827683    -0.20200
H374        H  0.07073384  0.13885077  0.00670989     0.17500
H375        H  0.17980843  0.11031054  0.49784110     0.17500
F376        F  0.14347637  0.06455749  0.49699610    -0.20200
C377        C  0.34422589  0.99701309  0.38248460    -0.21700
C378        C  0.35226381  0.99918130  0.35148547    -0.09700
C379        C  0.38333438  0.49843073  0.34428686     0.29200
C380        C  0.40546188  0.49861366  0.36719156    -0.21700
C381        C  0.39759391  0.99932757  0.39778296    -0.09700
C382        C  0.36644587  0.99697162  0.40534177     0.29200
F383        F  0.35720405  0.99441712  0.43478710    -0.18600
H384        H  0.32057003  0.99527049  0.38922450     0.17500
H385        H  0.42917456  0.49774255  0.36047382     0.17500
F386        F  0.39274047  0.49694138  0.31481716    -0.20200
C387        C  0.13166796  0.50585139  0.40476422    -0.21700
C388        C  0.10173388  0.99930058  0.39708136    -0.09700
C389        C  0.09556647  0.98889539  0.36729713     0.29200
C390        C  0.11829253  0.98943435  0.34493713    -0.21700
C391        C  0.14765283  0.00025129  0.35167035    -0.09700
C392        C  0.15453539  0.50627241  0.38258038     0.29200
F393        F  0.18334751  0.51308971  0.39141698    -0.20200
H394        H  0.13785941  0.51079764  0.42815760     0.17500
H395        H  0.11295725  0.98094827  0.32235551     0.17500
F396        F  0.06781288  0.97752582  0.35983758    -0.20200
C397        C  0.15578644  0.49535520  0.11702562    -0.21700
C398        C  0.14753338  0.00098474  0.14736726    -0.09700
C399        C  0.11656294  0.00527251  0.15472553     0.29200
C400        C  0.09442098  0.00492638  0.13186732    -0.21700
C401        C  0.10240512  0.00030439  0.10113488    -0.09700
C402        C  0.13360997  0.49498275  0.09421293     0.29200
F403        F  0.14259162  0.48959377  0.06506576    -0.20200
H404        H  0.17927074  0.49149374  0.11054531     0.17500
H405        H  0.07088975  0.00844450  0.13837249     0.17500
F406        F  0.10745269  0.01005420  0.18393830    -0.20200
C407        C  0.36809959  0.50388811  0.09458528    -0.21700
C408        C  0.39829850  0.99858695  0.10237989    -0.09700
C409        C  0.40543635  0.99443862  0.13346672     0.29200
C410        C  0.38240735  0.99451693  0.15548263    -0.21700
C411        C  0.35174089  0.99869049  0.14722251    -0.09700
C412        C  0.34512760  0.50411019  0.11660550     0.29200
F413        F  0.31621106  0.51006628  0.10745906    -0.20200
H414        H  0.36189599  0.50836338  0.07109733     0.17500
H415        H  0.38873246  0.99125023  0.17913573     0.17500
F416        F  0.43458279  0.99012481  0.14280574    -0.20200
C417        C  0.00121851  0.15534306  0.38240520    -0.21700
C418        C  0.00020704  0.14696723  0.35145758    -0.09700
C419        C  0.49960424  0.11566062  0.34395834     0.29200
C420        C  0.49981057  0.09357923  0.36693084    -0.21700
C421        C  0.00065178  0.10197735  0.39788867    -0.09700
C422        C  0.00148890  0.13327616  0.40536112     0.29200
F423        F  0.00258535  0.14283638  0.43479756    -0.20200
H424        H  0.00184195  0.17915031  0.38904730     0.17500
H425        H  0.49922281  0.06976479  0.36030942     0.17500
F426        F  0.49870745  0.10612604  0.31450363    -0.20200
C427        C  0.50862668  0.36728523  0.40575032    -0.21700
C428        C  0.00011423  0.39735926  0.39842932    -0.09700
C429        C  0.99177435  0.40414922  0.36814259     0.29200
C430        C  0.99204447  0.38135949  0.34589718    -0.21700
C431        C  0.00049134  0.35128246  0.35319302    -0.09700
C432        C  0.50890820  0.34446875  0.38347015     0.29200
F433        F  0.51796744  0.31595271  0.39158149    -0.20200
H434        H  0.51542127  0.36139382  0.42876252     0.17500
H435        H  0.98521442  0.38729078  0.32290758     0.17500
F436        F  0.98271476  0.43264253  0.35997163    -0.20200
C437        C  0.50700353  0.40517741  0.13257493    -0.21700
C438        C  0.99811200  0.39791180  0.10264752    -0.09700
C439        C  0.98886225  0.36781250  0.09613053     0.29200
C440        C  0.98893621  0.34560900  0.11900919    -0.21700
C441        C  0.99811564  0.35280715  0.14886545    -0.09700
C442        C  0.50710606  0.38297198  0.15544347     0.29200
F443        F  0.51681092  0.39097929  0.18372989    -0.20200
H444        H  0.51442196  0.42805393  0.13827616     0.17500
H445        H  0.98158445  0.32270995  0.11330737     0.17500
F446        F  0.97929435  0.35978825  0.06780208    -0.20200
C447        C  0.49659219  0.11733819  0.15558586    -0.21700
C448        C  0.99991398  0.14822985  0.14745579    -0.09700
C449        C  0.00304282  0.15566542  0.11630201     0.29200
C450        C  0.00304966  0.13273125  0.09414902    -0.21700
C451        C  0.99990287  0.10183593  0.10228705    -0.09700
C452        C  0.49652213  0.09440567  0.13342587     0.29200
F453        F  0.49288351  0.06505386  0.14269802    -0.20200
H454        H  0.49389790  0.11075417  0.17925020     0.17500
H455        H  0.00569453  0.13931749  0.07048075     0.17500
F456        F  0.00635537  0.18503929  0.10700367    -0.20200
O457        O  0.00011002  0.05002491  0.58702763    -0.80500
O458        O  0.99946888  0.04961064  0.91272843    -0.82000
O459        O  0.05082562  0.08645747  0.50072002    -0.79000
O460        O  0.45095268  0.08746208  0.49905059    -0.77400
O461        O  0.41408428  0.05073934  0.49898820    -0.79200
O462        O  0.08736428  0.04936817  0.50023915    -0.80200
O463        O  0.00057715  0.08649952  0.94957306    -0.81500
O464        O  0.00068043  0.08692183  0.55016618    -0.81800
Eu465      Eu  0.00064084  0.06173949  0.50006024     2.39200
O466        O  0.46892265  0.03103507  0.96898023    -0.89300
O467        O  0.03155766  0.03070996  0.53085717    -0.92900
C468        C  0.00025173  0.07818502  0.57830809     1.01800
C469        C  0.00017785  0.07774589  0.92145448     1.01600
C470        C  0.07887112  0.07757290  0.50069449     1.01600
C471        C  0.42284859  0.07888872  0.49869464     0.99400
H472        H  0.04334967  0.04327575  0.95574865     0.29200
O473        O  0.03063481  0.03063281  0.96850777    -1.01700
H474        H  0.45675620  0.04387790  0.54379241     0.29200
O475        O  0.46944676  0.03110819  0.53109495    -1.04200
O476        O  0.00065778  0.44921360  0.91388296    -0.81400
O477        O  0.99927938  0.45008996  0.58729162    -0.81000
O478        O  0.08591633  0.99958742  0.94859849    -0.79400
O479        O  0.41255016  0.00014564  0.95029289    -0.82800
O480        O  0.41380520  0.99945108  0.55021565    -0.80600
O481        O  0.08718536  0.99999194  0.54941542    -0.79300
O482        O  0.04955668  0.41265588  0.50023774    -0.80800
O483        O  0.44938673  0.41322903  0.50109419    -0.82700
O484        O  0.08643098  0.44935391  0.49957042    -0.79400
O485        O  0.41287018  0.45036170  0.50105135    -0.82100
O486        O  0.04889832  0.99937687  0.91204456    -0.77800
O487        O  0.05070444  0.00046966  0.58655287    -0.77900
O488        O  0.45061792  0.99900390  0.58699047    -0.77500
O489        O  0.44907876  0.00002525  0.91323049    -0.81000
O490        O  0.00087708  0.41222092  0.95065780    -0.80400
O491        O  0.99856955  0.41311764  0.55054543    -0.78800
Eu492      Eu  0.99932247  0.99966662  0.93794075     2.39800
Eu493      Eu  0.00051072  0.99992320  0.56180524     2.39600
Eu494      Eu  0.06194450  0.99952704  0.49955325     2.38400
Eu495      Eu  0.43854425  0.00024963  0.49997908     2.39900
Eu496      Eu  0.99960988  0.43794320  0.50032818     2.39800
O497        O  0.46903952  0.46923081  0.53119608    -0.93200
O498        O  0.03071522  0.46846810  0.96913127    -0.92100
C499        C  0.00101077  0.42105540  0.92257027     1.02000
C500        C  0.99855272  0.42192294  0.57864636     1.00700
C501        C  0.07703760  0.99953260  0.92048836     1.00100
C502        C  0.42102269  0.00005427  0.92209918     1.02100
C503        C  0.42254454  0.99890150  0.57833881     1.01000
C504        C  0.07873203  0.00040178  0.57760342     0.99900
C505        C  0.07766359  0.42123236  0.49991026     0.99900
C506        C  0.42134381  0.42214302  0.50129813     1.02500
H507        H  0.04357430  0.45592607  0.54383323     0.29900
O508        O  0.03092267  0.46867326  0.53109177    -1.05400
H509        H  0.45606321  0.45589289  0.95663640     0.32000
O510        O  0.46879475  0.46861922  0.96928837    -1.07900
O511        O  0.00054376  0.20072332  0.66280573    -0.80500
O512        O  0.99953727  0.19880075  0.83645141    -0.82000
O513        O  0.05020976  0.16355415  0.74893632    -0.79000
O514        O  0.45012826  0.16316900  0.75074137    -0.77400
O515        O  0.41321891  0.19988767  0.75116246    -0.79200
O516        O  0.08685848  0.20047105  0.74993330    -0.80200
O517        O  0.99997305  0.16227853  0.79923305    -0.81500
O518        O  0.99983809  0.16354565  0.69938205    -0.81800
Eu519      Eu  0.00005877  0.18827127  0.74971843     2.39200
O520        O  0.46888401  0.21859357  0.78107963    -0.89300
O521        O  0.03104526  0.21962722  0.71930920    -0.92900
C522        C  0.00022474  0.17249494  0.67130438     1.01800
C523        C  0.99974203  0.17073254  0.82742321     1.01600
C524        C  0.07826067  0.17227723  0.74922258     1.01600
C525        C  0.42202237  0.17175953  0.75123926     0.99400
H526        H  0.04356061  0.20597444  0.79392031     0.29200
O527        O  0.03083028  0.21877634  0.78131295    -1.01700
H528        H  0.45631225  0.20653043  0.70624537     0.29200
O529        O  0.46897054  0.21922540  0.71900189    -1.04200
O530        O  0.00093729  0.29906868  0.83803890    -0.81400
O531        O  0.99876158  0.30096212  0.66398129    -0.81000
O532        O  0.08596590  0.25080960  0.80131201    -0.79400
O533        O  0.41293822  0.25020893  0.80046324    -0.82800
O534        O  0.41326948  0.25014955  0.70029347    -0.80600
O535        O  0.08695706  0.25105556  0.70114360    -0.79300
O536        O  0.04907565  0.33759755  0.75112762    -0.80800
O537        O  0.44922796  0.33684927  0.75050111    -0.82700
O538        O  0.08605769  0.30094167  0.75137415    -0.79400
O539        O  0.41274222  0.29978569  0.74980342    -0.82100
O540        O  0.04906247  0.24982542  0.83798596    -0.77800
O541        O  0.05046950  0.25108505  0.66405335    -0.77900
O542        O  0.44995091  0.25059598  0.66336416    -0.77500
O543        O  0.44962682  0.24967453  0.83730874    -0.81000
O544        O  0.00024939  0.33625562  0.80144867    -0.80400
O545        O  0.99877063  0.33753468  0.70115285    -0.78800
Eu546      Eu  0.99956490  0.24939643  0.81227909     2.39800
Eu547      Eu  0.99999695  0.25059589  0.68851813     2.39600
Eu548      Eu  0.06147097  0.25050228  0.75087297     2.38400
Eu549      Eu  0.43814211  0.24993741  0.75040715     2.39900
Eu550      Eu  0.99939500  0.31198339  0.75098800     2.39800
O551        O  0.46884791  0.28120343  0.71963606    -0.93200
O552        O  0.03031542  0.28101116  0.78189873    -0.92100
C553        C  0.00101492  0.32726186  0.82949686     1.02000
C554        C  0.99853563  0.32904261  0.67295929     1.00700
C555        C  0.07714984  0.25050994  0.82943901     1.00100
C556        C  0.42157630  0.25014753  0.82862330     1.02100
C557        C  0.42186090  0.25033907  0.67213306     1.01000
C558        C  0.07851744  0.25125044  0.67296341     0.99900
C559        C  0.07720911  0.32908895  0.75127480     0.99900
C560        C  0.42119698  0.32798058  0.74996605     1.02500
H561        H  0.04324064  0.29446328  0.70724913     0.29900
O562        O  0.03062055  0.28152623  0.71981982    -1.05400
H563        H  0.45586408  0.29353184  0.79461297     0.32000
O564        O  0.46856109  0.28085827  0.78182766    -1.07900
O565        O  0.33654715  0.49965559  0.69950565    -0.80500
O566        O  0.16316523  0.50114056  0.69972866    -0.82000
O567        O  0.25121060  0.44980546  0.66280236    -0.79000
O568        O  0.24948210  0.05009634  0.66241968    -0.77400
O569        O  0.25088264  0.08695960  0.69942132    -0.79200
O570        O  0.24949829  0.41290470  0.69977400    -0.80200
O571        O  0.19977329  0.50059288  0.66272385    -0.81500
O572        O  0.29978376  0.49970874  0.66269204    -0.81800
Eu573      Eu  0.24984161  0.50014133  0.68775253     2.39200
O574        O  0.21940884  0.03122223  0.71844327    -0.89300
O575        O  0.28064848  0.46928012  0.71883395    -0.92900
C576        C  0.32784844  0.49950224  0.67135959     1.01800
C577        C  0.17171278  0.50105443  0.67156118     1.01600
C578        C  0.25059366  0.42168829  0.67168329     1.01600
C579        C  0.25021826  0.07817458  0.67132293     0.99400
H580        H  0.20604119  0.45652677  0.70588789     0.29200
O581        O  0.21876064  0.46920857  0.71859910    -1.01700
H582        H  0.29401785  0.04394923  0.70557663     0.29200
O583        O  0.28125194  0.03124881  0.71824620    -1.04200
O584        O  0.16289205  0.50046327  0.79972107    -0.81400
O585        O  0.33674998  0.50019409  0.79970291    -0.81000
O586        O  0.19952983  0.41360638  0.75013470    -0.79400
O587        O  0.20076861  0.08770300  0.74908431    -0.82800
O588        O  0.29987514  0.08734064  0.75041647    -0.80600
O589        O  0.29992068  0.41340610  0.74898891    -0.79300
O590        O  0.24866253  0.44982193  0.83682654    -0.80800
O591        O  0.25135207  0.05005742  0.83662185    -0.82700
O592        O  0.24922654  0.41306226  0.79981553    -0.79400
O593        O  0.25150934  0.08685310  0.79971994    -0.82100
O594        O  0.16278562  0.45050083  0.75006478    -0.77800
O595        O  0.33659574  0.45031789  0.74922361    -0.77900
O596        O  0.33666898  0.05053399  0.75040600    -0.77500
O597        O  0.16390745  0.05100625  0.74892335    -0.81000
O598        O  0.19968366  0.50054789  0.83653052    -0.80400
O599        O  0.30013680  0.49989016  0.83670120    -0.78800
Eu600      Eu  0.18818150  0.50048629  0.74973904     2.39800
Eu601      Eu  0.31156547  0.50028677  0.74969404     2.39600
Eu602      Eu  0.24970491  0.43831898  0.74971392     2.38400
Eu603      Eu  0.25030945  0.06194429  0.74954065     2.39900
Eu604      Eu  0.24990390  0.50006064  0.81171771     2.39800
O605        O  0.28090068  0.03094461  0.78063629    -0.93200
O606        O  0.21887571  0.46930982  0.78072331    -0.92100
C607        C  0.17159315  0.50062287  0.82785832     1.02000
C608        C  0.32823207  0.50004412  0.82789301     1.00700
C609        C  0.17144589  0.42230420  0.75019601     1.00100
C610        C  0.17267849  0.07916592  0.74887096     1.02100
C611        C  0.32793129  0.07870980  0.75072065     1.01000
C612        C  0.32800437  0.42216954  0.74896034     0.99900
C613        C  0.24874938  0.42167735  0.82798920     0.99900
C614        C  0.25186056  0.07821926  0.82787295     1.02500
H615        H  0.29346512  0.45625356  0.79337870     0.29900
O616        O  0.28080777  0.46906396  0.78070804    -1.05400
H617        H  0.20649615  0.04422201  0.79333168     0.32000
O618        O  0.21911253  0.03136550  0.78064808    -1.07900
O619        O  0.19955646  0.16282581  0.00082388    -0.80500
O620        O  0.20011553  0.33684387  0.00011090    -0.82000
O621        O  0.16341982  0.25066916  0.55084791    -0.79000
O622        O  0.16272634  0.25062922  0.95053127    -0.77400
O623        O  0.19941802  0.25049957  0.91362976    -0.79200
O624        O  0.20006807  0.25012123  0.58776212    -0.80200
O625        O  0.16326590  0.30012030  0.99968904    -0.81500
O626        O  0.16298415  0.19987847  0.00128883    -0.81800
Eu627      Eu  0.18808883  0.24998863  0.00046195     2.39200
O628        O  0.21894187  0.28099301  0.96959773    -0.89300
O629        O  0.21905295  0.21902422  0.53167729    -0.92900
C630        C  0.17151512  0.17166452  0.00127156     1.01800
C631        C  0.17203846  0.32823961  0.99968823     1.01600
C632        C  0.17198057  0.25059371  0.57899900     1.01600
C633        C  0.17136519  0.25073652  0.92236125     0.99400
H634        H  0.20668611  0.29382582  0.54451824     0.29200
O635        O  0.21928751  0.28103058  0.53176328    -1.01700
H636        H  0.20574490  0.20605804  0.95649369     0.29200
O637        O  0.21846736  0.21876703  0.96917426    -1.04200
O638        O  0.30014774  0.33673205  0.00066962    -0.81400
O639        O  0.29930179  0.16250634  0.99925788    -0.81000
O640        O  0.24994237  0.29991322  0.58779964    -0.79400
O641        O  0.24868979  0.30032218  0.91347573    -0.82800
O642        O  0.25080783  0.19962238  0.91349830    -0.80600
O643        O  0.25025729  0.19958750  0.58748385    -0.79300
O644        O  0.33707683  0.24944373  0.54982195    -0.80800
O645        O  0.33592111  0.25022054  0.94958929    -0.82700
O646        O  0.30060975  0.25004125  0.58697073    -0.79400
O647        O  0.29909662  0.25060242  0.91286976    -0.82100
O648        O  0.25139561  0.33690987  0.55090579    -0.77800
O649        O  0.24877478  0.16282228  0.55039402    -0.77900
O650        O  0.25043485  0.16283132  0.95040797    -0.77500
O651        O  0.24883467  0.33720010  0.95038821    -0.81000
O652        O  0.33664230  0.29958998  0.00088808    -0.80400
O653        O  0.33599561  0.19938393  0.99840743    -0.78800
Eu654      Eu  0.25005655  0.31181682  0.00043612     2.39800
Eu655      Eu  0.24944662  0.18797821  0.00035211     2.39600
Eu656      Eu  0.25018907  0.24981784  0.56254423     2.38400
Eu657      Eu  0.24945118  0.24997986  0.93839947     2.39900
Eu658      Eu  0.31128386  0.24964155  0.99993782     2.39800
O659        O  0.28024068  0.21880561  0.96918840    -0.93200
O660        O  0.28108518  0.28070742  0.53148803    -0.92100
C661        C  0.32818220  0.32782335  0.00102372     1.02000
C662        C  0.32735905  0.17121131  0.99835875     1.00700
C663        C  0.25068656  0.32803676  0.57898909     1.00100
C664        C  0.24842081  0.32848993  0.92224133     1.02100
C665        C  0.25105715  0.17144475  0.92226959     1.01000
C666        C  0.24935385  0.17152532  0.57851266     0.99900
C667        C  0.32865029  0.24974418  0.57802611     0.99900
C668        C  0.32717490  0.25064682  0.92146046     1.02500
H669        H  0.29370322  0.20583556  0.54394105     0.29900
O670        O  0.28095818  0.21869110  0.53139893    -1.05400
H671        H  0.29329893  0.29376533  0.95635770     0.32000
O672        O  0.28066375  0.28096998  0.96905827    -1.07900
C673        C  0.23357575  0.09769860  0.62060402    -0.21700
C674        C  0.25024333  0.10201538  0.64757611    -0.09700
C675        C  0.26673323  0.12923165  0.65158401     0.29200
C676        C  0.26608204  0.15186528  0.62913534    -0.21700
C677        C  0.24933898  0.14760212  0.60219878    -0.09700
C678        C  0.23303001  0.12027808  0.59808907     0.29200
F679        F  0.21584415  0.11576739  0.57275632    -0.20200
H680        H  0.22053494  0.07699588  0.61717873     0.17500
H681        H  0.27918426  0.17253211  0.63253979     0.17500
F682        F  0.28430011  0.13351448  0.67669479    -0.20200
C683        C  0.26839277  0.37827075  0.59904345    -0.21700
C684        C  0.25064716  0.35187848  0.60278526    -0.09700
C685        C  0.23289378  0.34862039  0.62930445     0.29200
C686        C  0.23318761  0.37131679  0.65173673    -0.21700
C687        C  0.25089966  0.39773655  0.64798062    -0.09700
C688        C  0.26866052  0.40098586  0.62146623     0.29200
F689        F  0.28700174  0.42563412  0.61768482    -0.20200
H690        H  0.28245649  0.38106901  0.57892222     0.17500
H691        H  0.21908654  0.36852586  0.67183364     0.17500
F692        F  0.21444928  0.32403526  0.63303270    -0.20200
C693        C  0.23805255  0.40456792  0.88150904    -0.21700
C694        C  0.24833634  0.39762924  0.85191116    -0.09700
C695        C  0.25825253  0.36765795  0.84566361     0.29200
C696        C  0.25800764  0.34542654  0.86856131    -0.21700
C697        C  0.24794268  0.35240651  0.89820591    -0.09700
C698        C  0.23770888  0.38228270  0.90439539     0.29200
F699        F  0.22671719  0.38990580  0.93233428    -0.20200
H700        H  0.22991148  0.42728078  0.88693798     0.17500
H701        H  0.26619223  0.32273201  0.86311859     0.17500
F702        F  0.26894939  0.35987369  0.81765807    -0.20200
C703        C  0.25370818  0.15566818  0.86737194    -0.21700
C704        C  0.25203256  0.14737771  0.89832454    -0.09700
C705        C  0.25119039  0.11605059  0.90581676     0.29200
C706        C  0.25145316  0.09391286  0.88286329    -0.21700
C707        C  0.25259913  0.10222469  0.85188614    -0.09700
C708        C  0.25404481  0.13352616  0.84442384     0.29200
F709        F  0.25568904  0.14301245  0.81498648    -0.20200
H710        H  0.25465625  0.17946545  0.86072688     0.17500
H711        H  0.25048241  0.07011639  0.88951121     0.17500
F712        F  0.24982976  0.10653941  0.93526486    -0.20200
C713        C  0.36719407  0.15615857  0.75108593    -0.21700
C714        C  0.39810664  0.14778269  0.75172306    -0.09700
C715        C  0.40558391  0.11647715  0.75261288     0.29200
C716        C  0.38269377  0.09437775  0.75235162    -0.21700
C717        C  0.35179950  0.10273220  0.75137276    -0.09700
C718        C  0.34429360  0.13406417  0.75097360     0.29200
F719        F  0.31489130  0.14362556  0.75035773    -0.20200
H720        H  0.36054860  0.17997207  0.75054136     0.17500
H721        H  0.38933510  0.07056594  0.75290309     0.17500
F722        F  0.43497090  0.10695163  0.75375518    -0.20200
C723        C  0.40532669  0.38286845  0.74784979    -0.21700
C724        C  0.39714525  0.35188295  0.74953875    -0.09700
C725        C  0.36595897  0.34431758  0.75080465     0.29200
C726        C  0.34381489  0.36722635  0.75045758    -0.21700
C727        C  0.35200440  0.39821538  0.74887047    -0.09700
C728        C  0.38319172  0.40577250  0.74749759     0.29200
F729        F  0.39257564  0.43524761  0.74576153    -0.20200
H730        H  0.42902631  0.38956801  0.74675194     0.17500
H731        H  0.32011429  0.36053914  0.75160714     0.17500
F732        F  0.35660077  0.31484040  0.75259473    -0.20200
C733        C  0.13320212  0.15669795  0.74855281    -0.21700
C734        C  0.10229780  0.14831876  0.74887311    -0.09700
C735        C  0.09490939  0.11697844  0.74902082     0.29200
C736        C  0.11785939  0.09489124  0.74894393    -0.21700
C737        C  0.14875628  0.10324225  0.74871064    -0.09700
C738        C  0.15617340  0.13458826  0.74846230     0.29200
F739        F  0.18556177  0.14414154  0.74815732    -0.20200
H740        H  0.13977783  0.18052359  0.74839649     0.17500
H741        H  0.11125037  0.07107646  0.74913625     0.17500
F742        F  0.06553921  0.10738414  0.74935245    -0.20200
C743        C  0.13199529  0.34488019  0.74959560    -0.21700
C744        C  0.10109470  0.35318185  0.75108017    -0.09700
C745        C  0.09362566  0.38450612  0.75216016     0.29200
C746        C  0.11653892  0.40664648  0.75180596    -0.21700
C747        C  0.14744946  0.39831908  0.75040035    -0.09700
C748        C  0.15488980  0.36699845  0.74924777     0.29200
F749        F  0.18425897  0.35746353  0.74768832    -0.20200
H750        H  0.13864512  0.32108357  0.74861904     0.17500
H751        H  0.10991811  0.43045382  0.75273213     0.17500
F752        F  0.06423764  0.39399731  0.75368019    -0.20200
C753        C  0.40606688  0.25117399  0.61716969    -0.21700
C754        C  0.39786972  0.25008071  0.64817891    -0.09700
C755        C  0.36668359  0.24860482  0.65574933     0.29200
C756        C  0.34456501  0.24844624  0.63287326    -0.21700
C757        C  0.35273802  0.24970169  0.60187613    -0.09700
C758        C  0.38393066  0.25096429  0.59427667     0.29200
F759        F  0.39329943  0.25213837  0.56478056    -0.20200
H760        H  0.42976912  0.25225819  0.61045153     0.17500
H761        H  0.32087234  0.24730029  0.63961333     0.17500
F762        F  0.35727900  0.24722071  0.68522271    -0.20200
C763        C  0.15598784  0.25364289  0.63386195    -0.21700
C764        C  0.14791836  0.25121323  0.60291245    -0.09700
C765        C  0.11675497  0.24947656  0.59532541     0.29200
C766        C  0.09456537  0.24962017  0.61815962    -0.21700
C767        C  0.10263151  0.25165752  0.64911999    -0.09700
C768        C  0.13376308  0.25396226  0.65670734     0.29200
F769        F  0.14297665  0.25665761  0.68614029    -0.20200
H770        H  0.17964913  0.25537277  0.64055543     0.17500
H771        H  0.07091110  0.24795804  0.61142501     0.17500
F772        F  0.10744339  0.24742199  0.56587719    -0.20200
C773        C  0.11654443  0.25343908  0.90676347    -0.21700
C774        C  0.14738382  0.25099989  0.89844685    -0.09700
C775        C  0.15477080  0.24868165  0.86721370     0.29200
C776        C  0.13186008  0.24860219  0.84516268    -0.21700
C777        C  0.10102209  0.25086226  0.85345773    -0.09700
C778        C  0.09361275  0.25341586  0.88467964     0.29200
F779        F  0.06428679  0.25607192  0.89410657    -0.20200
H780        H  0.11000237  0.25542998  0.93050693     0.17500
H781        H  0.13843837  0.24659269  0.82143251     0.17500
F782        F  0.18408771  0.24623673  0.85771215    -0.20200
C783        C  0.36671759  0.25230015  0.84415245    -0.21700
C784        C  0.39758181  0.25083910  0.85254956    -0.09700
C785        C  0.40496266  0.25022087  0.88385467     0.29200
C786        C  0.38199789  0.25027425  0.90588813    -0.21700
C787        C  0.35112387  0.25122289  0.89749453    -0.09700
C788        C  0.34374791  0.25265047  0.86620928     0.29200
F789        F  0.31440741  0.25445911  0.85667212    -0.20200
H790        H  0.36017146  0.25320775  0.82035442     0.17500
H791        H  0.38857191  0.24947775  0.92968184     0.17500
F792        F  0.43432568  0.24950675  0.89345464    -0.20200
C793        C  0.40542024  0.36733606  0.50490488    -0.21700
C794        C  0.39730420  0.39824913  0.50172576    -0.09700
C795        C  0.36648053  0.40545492  0.99731498     0.29200
C796        C  0.34429278  0.38259859  0.99736803    -0.21700
C797        C  0.35223796  0.35188734  0.50182302    -0.09700
C798        C  0.38330736  0.34442218  0.50500203     0.29200
F799        F  0.39255788  0.31503276  0.50836216    -0.20200
H800        H  0.42904661  0.36071279  0.50738834     0.17500
H801        H  0.32077604  0.38919793  0.99395443     0.17500
F802        F  0.35741209  0.43476561  0.99290891    -0.20200
C803        C  0.38227896  0.15592156  0.99987037    -0.21700
C804        C  0.35198943  0.14754693  0.49803101    -0.09700
C805        C  0.34499587  0.11636845  0.49422266     0.29200
C806        C  0.36813059  0.09444255  0.49436671    -0.21700
C807        C  0.39882290  0.10285542  0.49802306    -0.09700
C808        C  0.40543016  0.13403211  0.99974735     0.29200
F809        F  0.43466216  0.14374288  0.00227458    -0.20200
H810        H  0.38861612  0.17970312  0.00214093     0.17500
H811        H  0.36184970  0.07071025  0.49150438     0.17500
F812        F  0.31588852  0.10684254  0.49009650    -0.20200
C813        C  0.13251210  0.40573778  0.50172119    -0.21700
C814        C  0.10166131  0.39728834  0.50011937    -0.09700
C815        C  0.09431490  0.36588874  0.99735568     0.29200
C816        C  0.11726328  0.34381939  0.99751400    -0.21700
C817        C  0.14821775  0.35241620  0.50062679    -0.09700
C818        C  0.15552647  0.38372401  0.50201070     0.29200
F819        F  0.18484811  0.39332239  0.50376067    -0.20200
H820        H  0.13902165  0.42955431  0.50285466     0.17500
H821        H  0.11070404  0.32002262  0.99625273     0.17500
F822        F  0.06497012  0.35638334  0.99550978    -0.20200
C823        C  0.09462630  0.13244700  0.50351614    -0.21700
C824        C  0.10286895  0.10149476  0.50116595    -0.09700
C825        C  0.13360425  0.09386297  0.99804096     0.29200
C826        C  0.15571682  0.11677435  0.99835098    -0.21700
C827        C  0.14784711  0.14791428  0.50166964    -0.09700
C828        C  0.11669078  0.15538699  0.50382738     0.29200
F829        F  0.10728994  0.18481403  0.50634129    -0.20200
H830        H  0.07093226  0.13909169  0.50518230     0.17500
H831        H  0.17935284  0.11016389  0.99588620     0.17500
F832        F  0.14289803  0.06448116  0.99468337    -0.20200
C833        C  0.34368382  0.99918102  0.88276799    -0.21700
C834        C  0.35196382  0.99953195  0.85176275    -0.09700
C835        C  0.38351240  0.50152249  0.84428980     0.29200
C836        C  0.40567083  0.50156309  0.86718626    -0.21700
C837        C  0.39699657  0.99980733  0.89817491    -0.09700
C838        C  0.36576957  0.99924271  0.90570934     0.29200
F839        F  0.35631131  0.99867663  0.93519353    -0.18600
H840        H  0.31994916  0.99885537  0.88945177     0.17500
H841        H  0.42936081  0.50286253  0.86046367     0.17500
F842        F  0.39288440  0.50308633  0.81481395    -0.20200
C843        C  0.13177561  0.50679359  0.90476440    -0.21700
C844        C  0.10090464  0.99994322  0.89636697    -0.09700
C845        C  0.09377417  0.99520327  0.86534675     0.29200
C846        C  0.11672869  0.99553298  0.84320987    -0.21700
C847        C  0.14730539  0.00066006  0.85126104    -0.09700
C848        C  0.15458663  0.50726899  0.88252642     0.29200
F849        F  0.18334898  0.51448209  0.89121578    -0.20200
H850        H  0.13797570  0.51188744  0.92812350     0.17500
H851        H  0.11045769  0.99149668  0.81966261     0.17500
F852        F  0.06473430  0.98986660  0.85622423    -0.20200
C853        C  0.15568092  0.49718836  0.61686518    -0.21700
C854        C  0.14807987  0.00146396  0.64743914    -0.09700
C855        C  0.11714676  0.00592277  0.65488606     0.29200
C856        C  0.09492622  0.00552608  0.63211596    -0.21700
C857        C  0.10281813  0.00082886  0.60138234    -0.09700
C858        C  0.13349170  0.49686987  0.59405069     0.29200
F859        F  0.14258872  0.49246647  0.56477450    -0.20200
H860        H  0.17923302  0.49399565  0.61027491     0.17500
H861        H  0.07141609  0.00907190  0.63868301     0.17500
F862        F  0.10815085  0.01093313  0.68409780    -0.20200
C863        C  0.36757386  0.50300314  0.59427741    -0.21700
C864        C  0.39856455  0.99838006  0.60224641    -0.09700
C865        C  0.40563432  0.99309720  0.63317771     0.29200
C866        C  0.38268381  0.99335637  0.65527252    -0.21700
C867        C  0.35215707  0.99871775  0.64721573    -0.09700
C868        C  0.34462187  0.50317472  0.61632738     0.29200
F869        F  0.31550492  0.50773977  0.60702029    -0.20200
H870        H  0.36119015  0.50640227  0.57065900     0.17500
H871        H  0.38893061  0.98919033  0.67880627     0.17500
F872        F  0.43462255  0.98736760  0.64225341    -0.20200
C873        C  0.00803233  0.15418974  0.88130664    -0.21700
C874        C  0.00000308  0.14666636  0.85120053    -0.09700
C875        C  0.49241508  0.11616834  0.84436810     0.29200
C876        C  0.49270651  0.09398460  0.86726357    -0.21700
C877        C  0.00049461  0.10158019  0.89743571    -0.09700
C878        C  0.00840032  0.13201124  0.90416910     0.29200
F879        F  0.01698919  0.14043145  0.93269581    -0.20200
H880        H  0.01436405  0.17733710  0.88723021     0.17500
H881        H  0.48641325  0.07082667  0.86133926     0.17500
F882        F  0.48407565  0.10773754  0.81576708    -0.20200
C883        C  0.51131346  0.36745015  0.90564095    -0.21700
C884        C  0.00146746  0.39719376  0.89862938    -0.09700
C885        C  0.99197019  0.40370990  0.86864765     0.29200
C886        C  0.99212739  0.38090963  0.84643059    -0.21700
C887        C  0.00168864  0.35110892  0.85344912    -0.09700
C888        C  0.51157274  0.34462930  0.88334170     0.29200
F889        F  0.52204546  0.31647482  0.89099098    -0.20200
H890        H  0.51912930  0.36185509  0.92840154     0.17500
H891        H  0.98424867  0.38657472  0.82371278     0.17500
F892        F  0.98174142  0.43190033  0.86082652    -0.20200
C893        C  0.50538956  0.40577538  0.63297371    -0.21700
C894        C  0.99791621  0.39811736  0.60273877    -0.09700
C895        C  0.99014525  0.36763971  0.59600965     0.29200
C896        C  0.99028217  0.34550804  0.61895585    -0.21700
C897        C  0.99805540  0.35310059  0.64912492    -0.09700
C898        C  0.50554167  0.38363523  0.65592126     0.29200
F899        F  0.51375051  0.39213948  0.68453706    -0.20200
H900        H  0.51162007  0.42894770  0.63890362     0.17500
H901        H  0.98410787  0.32232099  0.61301955     0.17500
F902        F  0.98203133  0.35910814  0.56737525    -0.20200
C903        C  0.49079309  0.11872676  0.65446224    -0.21700
C904        C  0.00007341  0.14859769  0.64726740    -0.09700
C905        C  0.00908566  0.15509979  0.61709459     0.29200
C906        C  0.00895964  0.13215581  0.59492232    -0.21700
C907        C  0.99990565  0.10223435  0.60217949    -0.09700
C908        C  0.49058693  0.09580729  0.63227377     0.29200
F909        F  0.48066254  0.06756765  0.64027303    -0.20200
H910        H  0.48333555  0.11306748  0.67733209     0.17500
H911        H  0.01637255  0.13781791  0.57203907     0.17500
F912        F  0.01868344  0.18342375  0.60900752    -0.20200
O913        O  0.00019314  0.54985272  0.08718858    -0.80500
O914        O  0.99922156  0.54977914  0.41311091    -0.82000
O915        O  0.05056925  0.58637316  0.00115734    -0.79000
O916        O  0.45056302  0.58717803  0.99913133    -0.77400
O917        O  0.41367955  0.55045095  0.99923853    -0.79200
O918        O  0.08715444  0.54931275  0.00079114    -0.80200
O919        O  0.00022818  0.58660268  0.44998286    -0.81500
O920        O  0.00036635  0.58678994  0.05038254    -0.81800
Eu921      Eu  0.00040311  0.56162952  0.00027597     2.39200
O922        O  0.46911067  0.53105230  0.46922887    -0.89300
O923        O  0.03143617  0.53062875  0.03102543    -0.92900
C924        C  0.00015280  0.57801330  0.07851568     1.01800
C925        C  0.99966399  0.57792751  0.42185792     1.01600
C926        C  0.07862269  0.57750929  0.00129956     1.01600
C927        C  0.42244867  0.57859821  0.99882913     0.99400
H928        H  0.04360870  0.54337415  0.45601843     0.29200
O929        O  0.03089604  0.53071174  0.46877694    -1.01700
H930        H  0.45660898  0.54376973  0.04409696     0.29200
O931        O  0.46929258  0.53100558  0.03138656    -1.04200
O932        O  0.00018021  0.94955389  0.41336644    -0.81400
O933        O  0.99914160  0.94968498  0.08663641    -0.81000
O934        O  0.08625277  0.49940751  0.44918603    -0.79400
O935        O  0.41284225  0.50016023  0.45033824    -0.82800
O936        O  0.41380921  0.49941610  0.05064990    -0.80600
O937        O  0.08718646  0.49936000  0.04956225    -0.79300
O938        O  0.04937411  0.91263269  0.99947729    -0.80800
O939        O  0.44921336  0.91320665  0.00050995    -0.82700
O940        O  0.08628027  0.94930149  0.99876198    -0.79400
O941        O  0.41269578  0.95034912  0.00074046    -0.82100
O942        O  0.04926976  0.49924868  0.41258192    -0.77800
O943        O  0.05066222  0.50001542  0.08665568    -0.77900
O944        O  0.45065801  0.49893393  0.08738601    -0.77500
O945        O  0.44938746  0.49991697  0.41329459    -0.81000
O946        O  0.00049719  0.91258813  0.45018386    -0.80400
O947        O  0.99848695  0.91279949  0.04983649    -0.78800
Eu948      Eu  0.99955231  0.49970880  0.43824257     2.39800
Eu949      Eu  0.00044863  0.49981977  0.06199453     2.39600
Eu950      Eu  0.06182901  0.49941215  0.99975177     2.38400
Eu951      Eu  0.43839956  0.50007512  0.00034808     2.39900
Eu952      Eu  0.99944834  0.93791937  0.99985029     2.39800
O953        O  0.46892122  0.96910926  0.03084215    -0.93200
O954        O  0.03083800  0.96867154  0.46884005    -0.92100
C955        C  0.00039565  0.92141078  0.42208319     1.02000
C956        C  0.99843658  0.92152328  0.07794726     1.00700
C957        C  0.07740038  0.49928843  0.42107274     1.00100
C958        C  0.42131904  0.50001087  0.42213772     1.02100
C959        C  0.42257579  0.49888119  0.07876226     1.01000
C960        C  0.07869426  0.49969143  0.07774103     0.99900
C961        C  0.07748086  0.92119190  0.99902239     0.99900
C962        C  0.42117166  0.92212580  0.00078719     1.02500
H963        H  0.04354335  0.95572082  0.04330419     0.29900
O964        O  0.03087626  0.96851519  0.03062449    -1.05400
H965        H  0.45625628  0.95612383  0.45636380     0.32000
O966        O  0.46900849  0.96884746  0.46899479    -1.07900
O967        O  0.00029055  0.70039458  0.16304919    -0.80500
O968        O  0.99892641  0.69914840  0.33656998    -0.82000
O969        O  0.04993123  0.66352925  0.24908332    -0.79000
O970        O  0.44982776  0.66322630  0.25102599    -0.77400
O971        O  0.41294700  0.69997553  0.25138725    -0.79200
O972        O  0.08663900  0.70039676  0.24987877    -0.80200
O973        O  0.99941268  0.66249214  0.29952118    -0.81500
O974        O  0.99975332  0.66332243  0.19971479    -0.81800
Eu975      Eu  0.99981509  0.68828513  0.24992082     2.39200
O976        O  0.46873538  0.71882879  0.28109934    -0.89300
O977        O  0.03074705  0.71957899  0.21941784    -0.92900
C978        C  0.00010060  0.67219598  0.17161399     1.01800
C979        C  0.99899964  0.67102787  0.32768020     1.01600
C980        C  0.07799425  0.67220704  0.24923090     1.01600
C981        C  0.42172401  0.67184168  0.25154564     0.99400
H982        H  0.04344079  0.70608437  0.29409337     0.29200
O983        O  0.03072590  0.71883378  0.28141451    -1.01700
H984        H  0.45602080  0.70633231  0.20637489     0.29200
O985        O  0.46868851  0.71908335  0.21906658    -1.04200
O986        O  0.00038906  0.79953068  0.33756442    -0.81400
O987        O  0.99843578  0.80051945  0.16353117    -0.81000
O988        O  0.08587548  0.75136144  0.30132719    -0.79400
O989        O  0.41282178  0.75029855  0.30042107    -0.82800
O990        O  0.41287087  0.74995495  0.20031333    -0.80600
O991        O  0.08670098  0.75083169  0.20103114    -0.79300
O992        O  0.04884383  0.83765663  0.25056975    -0.80800
O993        O  0.44906533  0.83696722  0.25003468    -0.82700
O994        O  0.08582462  0.80098956  0.25085815    -0.79400
O995        O  0.41260346  0.79988323  0.24962855    -0.82100
O996        O  0.04897317  0.75045809  0.33799513    -0.77800
O997        O  0.05017244  0.75072526  0.16397427    -0.77900
O998        O  0.44954927  0.75022827  0.16338333    -0.77500
O999        O  0.44957250  0.74990536  0.33720906    -0.81000
O1000       O  0.99964920  0.83665319  0.30090000    -0.80400
O1001       O  0.99838063  0.83720792  0.20055722    -0.78800
Eu1002     Eu  0.99946740  0.74967364  0.31217686     2.39800
Eu1003     Eu  0.99968325  0.75035842  0.18845503     2.39600
Eu1004     Eu  0.06130726  0.75050566  0.25081503     2.38400
Eu1005     Eu  0.43791768  0.74998607  0.25033752     2.39900
Eu1006     Eu  0.99916977  0.81202525  0.25059005     2.39800
O1007       O  0.46854924  0.78115212  0.21939123    -0.93200
O1008       O  0.03014447  0.78120388  0.28164101    -0.92100
C1009       C  0.00031123  0.82770579  0.32896725     1.02000
C1010       C  0.99815707  0.82863587  0.17238795     1.00700
C1011       C  0.07707723  0.75123317  0.32947870     1.00100
C1012       C  0.42151489  0.75026800  0.32856032     1.02100
C1013       C  0.42145211  0.75004338  0.17215072     1.01000
C1014       C  0.07823351  0.75092497  0.17285708     0.99900
C1015       C  0.07697548  0.82913792  0.25067954     0.99900
C1016       C  0.42104135  0.82808334  0.24961756     1.02500
H1017       H  0.04297613  0.79424756  0.20694650     0.29900
O1018       O  0.03038221  0.78137196  0.21960612    -1.05400
H1019       H  0.45570527  0.79368625  0.29432468     0.32000
O1020       O  0.46841676  0.78097983  0.28158762    -1.07900
O1021       O  0.33639375  0.99931377  0.19927478    -0.80500
O1022       O  0.16295696  0.00102376  0.19945881    -0.82000
O1023       O  0.25106849  0.95008810  0.16228396    -0.79000
O1024       O  0.24911459  0.55020926  0.16253013    -0.77400
O1025       O  0.25059083  0.58703113  0.19957333    -0.79200
O1026       O  0.24936959  0.91313716  0.19920689    -0.80200
O1027       O  0.19957528  0.00060205  0.16245322    -0.81500
O1028       O  0.29965741  0.99959052  0.16244413    -0.81800
Eu1029     Eu  0.24963962  0.00024014  0.18745572     2.39200
O1030       O  0.21910187  0.53112214  0.21860365    -0.89300
O1031       O  0.28040558  0.96930536  0.21847945    -0.92900
C1032       C  0.32772351  0.99919358  0.17112755     1.01800
C1033       C  0.17151512  0.00094949  0.17128624     1.01600
C1034       C  0.25048279  0.92196918  0.17112397     1.01600
C1035       C  0.24988521  0.57828817  0.17146286     0.99400
H1036       H  0.20582406  0.95660249  0.20554095     0.29200
O1037       O  0.21854040  0.96926904  0.21827033    -1.01700
H1038       H  0.29374758  0.54401585  0.20572240     0.29200
O1039       O  0.28100482  0.53128326  0.21838314    -1.04200
O1040       O  0.16277790  0.00003530  0.29959262    -0.81400
O1041       O  0.33658449  0.99986396  0.29936538    -0.81000
O1042       O  0.19933186  0.91354955  0.24958578    -0.79400
O1043       O  0.20030656  0.58742071  0.24907510    -0.82800
O1044       O  0.29947694  0.58746087  0.25064858    -0.80600
O1045       O  0.29964132  0.91333167  0.24867004    -0.79300
O1046       O  0.24859621  0.94986515  0.33642360    -0.80800
O1047       O  0.25093432  0.55012450  0.33673462    -0.82700
O1048       O  0.24865589  0.91311295  0.29947081    -0.79400
O1049       O  0.25070446  0.58688121  0.29979768    -0.82100
O1050       O  0.16261512  0.95047131  0.24974395    -0.77800
O1051       O  0.33627592  0.95027906  0.24886847    -0.77900
O1052       O  0.33631324  0.55069165  0.25058366    -0.77500
O1053       O  0.16347051  0.55070052  0.24906867    -0.81000
O1054       O  0.19963978  0.00049963  0.33639097    -0.80400
O1055       O  0.30003726  0.99952016  0.33642244    -0.78800
Eu1056     Eu  0.18798133  0.00046800  0.24950932     2.39800
Eu1057     Eu  0.31132434  0.00026292  0.24937588     2.39600
Eu1058     Eu  0.24946331  0.93831503  0.24931836     2.38400
Eu1059     Eu  0.24997741  0.56191651  0.24965083     2.39900
Eu1060     Eu  0.24979361  0.00010818  0.31142230     2.39800
O1061       O  0.28077399  0.53109124  0.28075720    -0.93200
O1062       O  0.21875744  0.96933997  0.28042003    -0.92100
C1063       C  0.17154951  0.00029291  0.32771265     1.02000
C1064       C  0.32812279  0.99955357  0.32757414     1.00700
C1065       C  0.17125794  0.92227005  0.24971391     1.00100
C1066       C  0.17222185  0.57886722  0.24889287     1.02100
C1067       C  0.32754504  0.57885762  0.25095004     1.01000
C1068       C  0.32771590  0.92212560  0.24864099     0.99900
C1069       C  0.24834973  0.92170239  0.32765731     0.99900
C1070       C  0.25108061  0.57828175  0.32795919     1.02500
H1071       H  0.29320322  0.95619501  0.29298743     0.29900
O1072       O  0.28055948  0.96904253  0.28034149    -1.05400
H1073       H  0.20629844  0.54406394  0.29352501     0.32000
O1074       O  0.21895521  0.53125394  0.28083535    -1.07900
O1075       O  0.19978994  0.66292167  0.50111092    -0.80500
O1076       O  0.20048601  0.83698035  0.50024001    -0.82000
O1077       O  0.16309029  0.75070417  0.05064323    -0.79000
O1078       O  0.16286779  0.75107450  0.45079817    -0.77400
O1079       O  0.19948485  0.75108254  0.41382964    -0.79200
O1080       O  0.19974843  0.75031076  0.08753816    -0.80200
O1081       O  0.16363064  0.80025834  0.49995850    -0.81500
O1082       O  0.16323387  0.69999280  0.50169505    -0.81800
Eu1083     Eu  0.18840328  0.75009293  0.50074573     2.39200
O1084       O  0.21925029  0.78107386  0.46990324    -0.89300
O1085       O  0.21878431  0.71906255  0.03164652    -0.92900
C1086       C  0.17174846  0.67176926  0.50167349     1.01800
C1087       C  0.17239625  0.82838138  0.49983211     1.01600
C1088       C  0.17165272  0.75067937  0.07879229     1.01600
C1089       C  0.17143583  0.75142184  0.42259155     0.99400
H1090       H  0.20638812  0.79401876  0.04415273     0.29200
O1091       O  0.21901256  0.78119111  0.03145138    -1.01700
H1092       H  0.20586853  0.70620134  0.45673561     0.29200
O1093       O  0.21867204  0.71885520  0.46938892    -1.04200
O1094       O  0.30054991  0.83672691  0.50069768    -0.81400
O1095       O  0.29964678  0.66260912  0.49957213    -0.81000
O1096       O  0.24978243  0.80029383  0.08728151    -0.79400
O1097       O  0.24859563  0.80048269  0.41376229    -0.82800
O1098       O  0.25036124  0.69970548  0.41362935    -0.80600
O1099       O  0.25004691  0.69994396  0.08763319    -0.79300
O1100       O  0.33674422  0.74956209  0.04975108    -0.80800
O1101       O  0.33614194  0.75013279  0.44960088    -0.82700
O1102       O  0.30024033  0.75024207  0.08686327    -0.79400
O1103       O  0.29921990  0.75058741  0.41297625    -0.82100
O1104       O  0.25122752  0.83719993  0.05028913    -0.77800
O1105       O  0.24857917  0.66305456  0.05066284    -0.77900
O1106       O  0.25034166  0.66287911  0.45051042    -0.77500
O1107       O  0.24938658  0.83729646  0.45065112    -0.81000
O1108       O  0.33706234  0.79960197  0.50071170    -0.80400
O1109       O  0.33637396  0.69945908  0.49871725    -0.78800
Eu1110     Eu  0.25044928  0.81186784  0.50065105     2.39800
Eu1111     Eu  0.24973524  0.68801448  0.50046654     2.39600
Eu1112     Eu  0.24989701  0.75004051  0.06233917     2.38400
Eu1113     Eu  0.24957785  0.75007422  0.43855557     2.39900
Eu1114     Eu  0.31162061  0.74967744  0.49994398     2.39800
O1115       O  0.28048604  0.71885153  0.46922519    -0.93200
O1116       O  0.28077266  0.78080473  0.03111792    -0.92100
C1117       C  0.32858616  0.82783112  0.50087992     1.02000
C1118       C  0.32771509  0.67129747  0.49877870     1.00700
C1119       C  0.25055206  0.82839353  0.07839320     1.00100
C1120       C  0.24862878  0.82866685  0.42249295     1.02100
C1121       C  0.25062788  0.67151619  0.42237371     1.01000
C1122       C  0.24914130  0.67184580  0.07875969     0.99900
C1123       C  0.32828651  0.74989417  0.07795115     0.99900
C1124       C  0.32732044  0.75057043  0.42150587     1.02500
H1125       H  0.29344477  0.70598683  0.04392366     0.29900
O1126       O  0.28070842  0.71879971  0.03133010    -1.05400
H1127       H  0.29353519  0.79379883  0.45640905     0.32000
O1128       O  0.28092517  0.78101473  0.46914660    -1.07900
C1129       C  0.23283769  0.59820077  0.12100193    -0.21700
C1130       C  0.24991651  0.60220105  0.14775999    -0.09700
C1131       C  0.26679979  0.62920234  0.15162887     0.29200
C1132       C  0.26615801  0.65192745  0.12924527    -0.21700
C1133       C  0.24904179  0.64795011  0.10249981    -0.09700
C1134       C  0.23230106  0.62086405  0.09855701     0.29200
F1135       F  0.21471149  0.61668411  0.07344738    -0.20200
H1136       H  0.21947689  0.57768517  0.11769769     0.17500
H1137       H  0.27957415  0.67241136  0.13252152     0.17500
F1138       F  0.28475292  0.63315409  0.17651914    -0.20200
C1139       C  0.26834168  0.87862280  0.09844405    -0.21700
C1140       C  0.25052903  0.85226848  0.10214712    -0.09700
C1141       C  0.23271159  0.84904211  0.12862186     0.29200
C1142       C  0.23301066  0.87171213  0.15106460    -0.21700
C1143       C  0.25080589  0.89807411  0.14737779    -0.09700
C1144       C  0.26862115  0.90132140  0.12089151     0.29200
F1145       F  0.28701703  0.92593960  0.11716378    -0.20200
H1146       H  0.28244620  0.88139549  0.07834784     0.17500
H1147       H  0.21885454  0.86894101  0.17112540     0.17500
F1148       F  0.21420766  0.82449686  0.13230287    -0.20200
C1149       C  0.24412518  0.90589703  0.38254255    -0.21700
C1150       C  0.24783695  0.89767405  0.35172201    -0.09700
C1151       C  0.25121056  0.86646973  0.34449588     0.29200
C1152       C  0.25133511  0.84441004  0.36755665    -0.21700
C1153       C  0.24795979  0.85265017  0.39839689    -0.09700
C1154       C  0.24405773  0.88380373  0.40559821     0.29200
F1155       F  0.23986666  0.89312804  0.43483860    -0.20200
H1156       H  0.24114417  0.92958792  0.38896963     0.17500
H1157       H  0.25431846  0.82072443  0.36111234     0.17500
F1158       F  0.25473774  0.85703743  0.31520795    -0.20200
C1159       C  0.25075997  0.65577654  0.36741012    -0.21700
C1160       C  0.25119805  0.64746533  0.39839709    -0.09700
C1161       C  0.25208317  0.61613537  0.40589239     0.29200
C1162       C  0.25223126  0.59400227  0.38293197    -0.21700
C1163       C  0.25150189  0.60231994  0.35194479    -0.09700
C1164       C  0.25091426  0.63364389  0.34445546     0.29200
F1165       F  0.25031919  0.64316049  0.31498922    -0.20200
H1166       H  0.25015918  0.67958042  0.36074567     0.17500
H1167       H  0.25280368  0.57019499  0.38959247     0.17500
F1168       F  0.25272309  0.60660602  0.43535861    -0.20200
C1169       C  0.36686698  0.65629330  0.25114856    -0.21700
C1170       C  0.39777007  0.64789524  0.25211140    -0.09700
C1171       C  0.40520202  0.61659375  0.25334566     0.29200
C1172       C  0.38229205  0.59451505  0.25302918    -0.21700
C1173       C  0.35141341  0.60288361  0.25167810    -0.09700
C1174       C  0.34394090  0.63421726  0.25099599     0.29200
F1175       F  0.31455295  0.64379327  0.25002576    -0.20200
H1176       H  0.36025230  0.68010789  0.25034308     0.17500
H1177       H  0.38890837  0.57070376  0.25384022     0.17500
F1178       F  0.43456527  0.60705295  0.25488757    -0.20200
C1179       C  0.40512492  0.88299968  0.24904959    -0.21700
C1180       C  0.39696930  0.85196237  0.24916358    -0.09700
C1181       C  0.36577906  0.84431533  0.24887103     0.29200
C1182       C  0.34360235  0.86718789  0.24857966    -0.21700
C1183       C  0.35175965  0.89822124  0.24856930    -0.09700
C1184       C  0.38295660  0.90586866  0.24874706     0.29200
F1185       F  0.39232199  0.93540112  0.24870435    -0.20200
H1186       H  0.42882786  0.88977125  0.24923473     0.17500
H1187       H  0.31989622  0.86042888  0.24844343     0.17500
F1188       F  0.35643632  0.81478040  0.24893360    -0.20200
C1189       C  0.13288778  0.65646794  0.24804269    -0.21700
C1190       C  0.10197198  0.64817788  0.24878655    -0.09700
C1191       C  0.09450870  0.61685053  0.24925168     0.29200
C1192       C  0.11740565  0.59469539  0.24920064    -0.21700
C1193       C  0.14831767  0.60296869  0.24862296    -0.09700
C1194       C  0.15579874  0.63429580  0.24792575     0.29200
F1195       F  0.18520230  0.64377354  0.24712890    -0.20200
H1196       H  0.13951934  0.68027351  0.24756377     0.17500
H1197       H  0.11075072  0.57089752  0.24969898     0.17500
F1198       F  0.06511584  0.60733904  0.24988790    -0.20200
C1199       C  0.13171644  0.84492509  0.24803735    -0.21700
C1200       C  0.10086654  0.85321704  0.25039323    -0.09700
C1201       C  0.09345684  0.88451251  0.25233758     0.29200
C1202       C  0.11638530  0.90663359  0.25202615    -0.21700
C1203       C  0.14724758  0.89831141  0.24979950    -0.09700
C1204       C  0.15462632  0.86702587  0.24772316     0.29200
F1205       F  0.18394384  0.85751726  0.24526152    -0.20200
H1206       H  0.13830890  0.82115259  0.24634109     0.17500
H1207       H  0.10982105  0.93041728  0.25368343     0.17500
F1208       F  0.06412231  0.89398611  0.25474927    -0.20200
C1209       C  0.40567230  0.75074247  0.11717920    -0.21700
C1210       C  0.39745187  0.74983182  0.14818823    -0.09700
C1211       C  0.36624127  0.74871634  0.15573899     0.29200
C1212       C  0.34413507  0.74869851  0.13283940    -0.21700
C1213       C  0.35234363  0.74977319  0.10184022    -0.09700
C1214       C  0.38355140  0.75071697  0.09426979     0.29200
F1215       F  0.39295381  0.75176190  0.06478063    -0.20200
H1216       H  0.42938714  0.75157186  0.11047087     0.17500
H1217       H  0.32042559  0.74782144  0.13956229     0.17500
F1218       F  0.35679920  0.74760075  0.18521238    -0.20200
C1219       C  0.15570073  0.75309367  0.13370384    -0.21700
C1220       C  0.14759465  0.75117536  0.10272817    -0.09700
C1221       C  0.11640980  0.74974284  0.09515215     0.29200
C1222       C  0.09423578  0.74975178  0.11801057    -0.21700
C1223       C  0.10233808  0.75132309  0.14899059    -0.09700
C1224       C  0.13349959  0.75324045  0.15657463     0.29200
F1225       F  0.14277663  0.75534850  0.18603534    -0.20200
H1226       H  0.17937977  0.75451873  0.14040558     0.17500
H1227       H  0.07056241  0.74838775  0.11127553     0.17500
F1228       F  0.10705846  0.74814787  0.06568842    -0.20200
C1229       C  0.11646622  0.75242439  0.40700610    -0.21700
C1230       C  0.14739383  0.75205332  0.39865285    -0.09700
C1231       C  0.15481757  0.75206048  0.36732841     0.29200
C1232       C  0.13189698  0.75192874  0.34524662    -0.21700
C1233       C  0.10097589  0.75189246  0.35356631    -0.09700
C1234       C  0.09351969  0.75238994  0.38489473     0.29200
F1235       F  0.06411355  0.75278764  0.39442716    -0.20200
H1236       H  0.10985664  0.75262746  0.43081216     0.17500
H1237       H  0.13855023  0.75172056  0.32145473     0.17500
F1238       F  0.18420546  0.75204238  0.35774107    -0.20200
C1239       C  0.36672813  0.75283384  0.34418629    -0.21700
C1240       C  0.39757872  0.75084491  0.35251632    -0.09700
C1241       C  0.40500851  0.74955888  0.38378573     0.29200
C1242       C  0.38208671  0.74957016  0.40584895    -0.21700
C1243       C  0.35121922  0.75110455  0.39751625    -0.09700
C1244       C  0.34380374  0.75311327  0.36627954     0.29200
F1245       F  0.31447272  0.75547607  0.35683488    -0.20200
H1246       H  0.36016197  0.75424332  0.32041795     0.17500
H1247       H  0.38868733  0.74826457  0.42961333     0.17500
F1248       F  0.43437242  0.74818106  0.39331725    -0.20200
C1249       C  0.40511561  0.86743512  0.00546674    -0.21700
C1250       C  0.39713267  0.89823182  0.00106644    -0.09700
C1251       C  0.36671667  0.90549357  0.49661986     0.29200
C1252       C  0.34459472  0.88258016  0.49674042    -0.21700
C1253       C  0.35204214  0.85188745  0.00112140    -0.09700
C1254       C  0.38298462  0.84452847  0.00554764     0.29200
F1255       F  0.39206506  0.81526636  0.01022611    -0.20200
H1256       H  0.42863818  0.86091990  0.00900367     0.17500
H1257       H  0.32108173  0.88908653  0.49312762     0.17500
F1258       F  0.35761024  0.93473489  0.49184829    -0.20200
C1259       C  0.38259330  0.65595175  0.50095845    -0.21700
C1260       C  0.35166723  0.64735333  0.99794587    -0.09700
C1261       C  0.34489869  0.61645882  0.99199475     0.29200
C1262       C  0.36800131  0.59446299  0.99224371    -0.21700
C1263       C  0.39843955  0.60258595  0.99806584    -0.09700
C1264       C  0.40572375  0.63404246  0.50086448     0.29200
F1265       F  0.43494644  0.64369406  0.50373776    -0.20200
H1266       H  0.38892461  0.67971047  0.50347634     0.17500
H1267       H  0.36194646  0.57093997  0.98766524     0.17500
F1268       F  0.31608692  0.60735613  0.98550148    -0.20200
C1269       C  0.13223092  0.90560351  0.00172083    -0.21700
C1270       C  0.10144070  0.89723515  0.99904305    -0.09700
C1271       C  0.09457172  0.86594373  0.49758752     0.29200
C1272       C  0.11756232  0.84390314  0.49788226    -0.21700
C1273       C  0.14791428  0.85231321  0.99967922    -0.09700
C1274       C  0.15520574  0.88356277  0.00206790     0.29200
F1275       F  0.18446346  0.89306643  0.00499344    -0.20200
H1276       H  0.13871136  0.92936846  0.00375346     0.17500
H1277       H  0.11101950  0.82008258  0.49706589     0.17500
F1278       F  0.06522670  0.85636558  0.49617488    -0.20200
C1279       C  0.09439488  0.63241293  0.99951302    -0.21700
C1280       C  0.10258992  0.60145603  0.00191225    -0.09700
C1281       C  0.13378447  0.59394925  0.49871599     0.29200
C1282       C  0.15590856  0.61685935  0.49896277    -0.21700
C1283       C  0.14759190  0.64785744  0.00207382    -0.09700
C1284       C  0.11646399  0.65534730  0.99961702     0.29200
F1285       F  0.10710809  0.68477879  0.99700203    -0.20200
H1286       H  0.07074458  0.63905689  0.99733456     0.17500
H1287       H  0.17953962  0.61023427  0.49649288     0.17500
F1288       F  0.14307340  0.56455773  0.49544020    -0.20200
C1289       C  0.34391420  0.50058324  0.38284020    -0.21700
C1290       C  0.35212335  0.49961680  0.35182979    -0.09700
C1291       C  0.38344285  0.00101368  0.34389768     0.29200
C1292       C  0.40565016  0.00115627  0.36676458    -0.21700
C1293       C  0.39726306  0.49979055  0.39819995    -0.09700
C1294       C  0.36604078  0.50059367  0.40575309     0.29200
F1295       F  0.35661990  0.50140295  0.43524223    -0.18600
H1296       H  0.32019735  0.50137646  0.38955174     0.17500
H1297       H  0.42931024  0.00281282  0.36001705     0.17500
F1298       F  0.39273718  0.00283895  0.31441255    -0.20200
C1299       C  0.13106695  0.01021263  0.40377122    -0.21700
C1300       C  0.10127493  0.49949868  0.39697723    -0.09700
C1301       C  0.09424960  0.49360858  0.36613908     0.29200
C1302       C  0.11714214  0.49398959  0.34394527    -0.21700
C1303       C  0.14756767  0.50019275  0.35178206    -0.09700
C1304       C  0.15375897  0.01083038  0.38139501     0.29200
F1305       F  0.18141007  0.02251172  0.38875740    -0.20200
H1306       H  0.13640179  0.01875274  0.42633205     0.17500
H1307       H  0.11096519  0.48910036  0.32053480     0.17500
F1308       F  0.06538732  0.48700436  0.35728788    -0.20200
C1309       C  0.15552274  0.99640857  0.11662769    -0.21700
C1310       C  0.14786444  0.50030859  0.14771246    -0.09700
C1311       C  0.11694698  0.50493419  0.15508992     0.29200
C1312       C  0.09478441  0.50462417  0.13227318    -0.21700
C1313       C  0.10270911  0.49972998  0.10157815    -0.09700
C1314       C  0.13336740  0.99598782  0.09377579     0.29200
F1315       F  0.14242986  0.99093676  0.06459378    -0.20200
H1316       H  0.17904880  0.99284530  0.11013266     0.17500
H1317       H  0.07129752  0.50844628  0.13876900     0.17500
F1318       F  0.10791958  0.51008881  0.18426644    -0.20200
C1319       C  0.36760908  0.00245991  0.09411327    -0.21700
C1320       C  0.39859458  0.49844470  0.10266181    -0.09700
C1321       C  0.40557719  0.49284640  0.13355457     0.29200
C1322       C  0.38258297  0.49309356  0.15560869    -0.21700
C1323       C  0.35211659  0.49881110  0.14754158    -0.09700
C1324       C  0.34460331  0.00255241  0.11610449     0.29200
F1325       F  0.31548349  0.00689528  0.10670716    -0.20200
H1326       H  0.36124498  0.00574772  0.07047455     0.17500
H1327       H  0.38874251  0.48864327  0.17911414     0.17500
F1328       F  0.43450983  0.48681677  0.14261927    -0.20200
C1329       C  0.00414257  0.65499294  0.38217078    -0.21700
C1330       C  0.99888790  0.64699611  0.35156886    -0.09700
C1331       C  0.49380848  0.61603833  0.34436457     0.29200
C1332       C  0.49417140  0.59387063  0.36728193    -0.21700
C1333       C  0.99948877  0.60188326  0.39788755    -0.09700
C1334       C  0.00450149  0.63284993  0.40507008     0.29200
F1335       F  0.01014872  0.64193521  0.43412619    -0.20200
H1336       H  0.00829720  0.67852065  0.38851728     0.17500
H1337       H  0.49004336  0.57033259  0.36095402     0.17500
F1338       F  0.48810370  0.60701772  0.31529596    -0.20200
C1339       C  0.51071979  0.86791005  0.40502712    -0.21700
C1340       C  0.00048545  0.89754220  0.39816463    -0.09700
C1341       C  0.99038605  0.90395378  0.36835247     0.29200
C1342       C  0.99059042  0.88118758  0.34607818    -0.21700
C1343       C  0.00072070  0.85153476  0.35292890    -0.09700
C1344       C  0.51095705  0.84512493  0.38271340     0.29200
F1345       F  0.52182301  0.81708143  0.39022165    -0.20200
H1346       H  0.51892610  0.86239445  0.42766836     0.17500
H1347       H  0.98234265  0.88674237  0.32346403     0.17500
F1348       F  0.97956891  0.93199446  0.36077851    -0.20200
C1349       C  0.50318732  0.90564160  0.13257681    -0.21700
C1350       C  0.99775066  0.89764202  0.10199686    -0.09700
C1351       C  0.99194828  0.86678086  0.09493660     0.29200
C1352       C  0.99195043  0.84468394  0.11792446    -0.21700
C1353       C  0.99769289  0.85264866  0.14846303    -0.09700
C1354       C  0.50323825  0.88354284  0.15554920     0.29200
F1355       F  0.50934875  0.89253529  0.18453947    -0.20200
H1356       H  0.50784019  0.92910123  0.13882398     0.17500
H1357       H  0.98736091  0.82120789  0.11168669     0.17500
F1358       F  0.98604321  0.85776520  0.06590634    -0.20200
C1359       C  0.49209179  0.61809583  0.15506874    -0.21700
C1360       C  0.00005577  0.64827842  0.14760057    -0.09700
C1361       C  0.00779325  0.65510139  0.11713737     0.29200
C1362       C  0.00763953  0.63220308  0.09494340    -0.21700
C1363       C  0.99985366  0.60199245  0.10244841    -0.09700
C1364       C  0.49188579  0.59520751  0.13286144     0.29200
F1365       F  0.48333279  0.56661831  0.14121046    -0.20200
H1366       H  0.48567804  0.61213969  0.17817836     0.17500
H1367       H  0.01400641  0.63816546  0.07182286     0.17500
F1368       F  0.01609230  0.68374028  0.10871891    -0.20200
O1369       O  0.99948327  0.55005455  0.58711258    -0.80500
O1370       O  0.00001314  0.54959066  0.91327063    -0.82000
O1371       O  0.05056344  0.58647588  0.50093742    -0.79000
O1372       O  0.45068276  0.58739500  0.49905792    -0.77400
O1373       O  0.41380628  0.55068491  0.49921083    -0.79200
O1374       O  0.08705768  0.54933805  0.50038412    -0.80200
O1375       O  0.00082034  0.58643740  0.95010603    -0.81500
O1376       O  0.00000523  0.58690057  0.55019134    -0.81800
Eu1377     Eu  0.00035217  0.56173314  0.50010543     2.39200
O1378       O  0.46926689  0.53090795  0.96935065    -0.89300
O1379       O  0.03126131  0.53074198  0.53093965    -0.92900
C1380       C  0.99948648  0.57818317  0.57833516     1.01800
C1381       C  0.00051789  0.57774242  0.92197976     1.01600
C1382       C  0.07860541  0.57755728  0.50092348     1.01600
C1383       C  0.42258588  0.57881972  0.49880259     0.99400
H1384       H  0.04375151  0.54327983  0.95630753     0.29200
O1385       O  0.03102001  0.53059485  0.96902197    -1.01700
H1386       H  0.45644526  0.54395539  0.54387580     0.29200
O1387       O  0.46915190  0.53117447  0.53120769    -1.04200
O1388       O  0.99978622  0.94937541  0.91330788    -0.81400
O1389       O  0.99967260  0.94984298  0.58699850    -0.81000
O1390       O  0.08651630  0.49977881  0.94931118    -0.79400
O1391       O  0.41311732  0.50014584  0.95035168    -0.82800
O1392       O  0.41345818  0.49971869  0.55043069    -0.80600
O1393       O  0.08687118  0.49994097  0.54951454    -0.79300
O1394       O  0.04984930  0.91264746  0.49943559    -0.80800
O1395       O  0.44975675  0.91317727  0.50063839    -0.82700
O1396       O  0.08672444  0.94933982  0.49893646    -0.79400
O1397       O  0.41321051  0.95029237  0.50054632    -0.82100
O1398       O  0.04948304  0.49947988  0.91276493    -0.77800
O1399       O  0.05038432  0.50055212  0.58664287    -0.77900
O1400       O  0.45029924  0.49930364  0.58715434    -0.77500
O1401       O  0.44968022  0.49995622  0.91331969    -0.81000
O1402       O  0.99999759  0.91244380  0.95010673    -0.80400
O1403       O  0.99896637  0.91292665  0.55017641    -0.78800
Eu1404     Eu  0.99979232  0.49957553  0.93840509     2.39800
Eu1405     Eu  0.00017770  0.50002265  0.56193049     2.39600
Eu1406     Eu  0.06159771  0.49950455  0.49963829     2.38400
Eu1407     Eu  0.43824593  0.50024097  0.50024386     2.39900
Eu1408     Eu  0.99995734  0.93796568  0.50006833     2.39800
O1409       O  0.46937479  0.96924013  0.53093146    -0.93200
O1410       O  0.03035360  0.96851323  0.96852713    -0.92100
C1411       C  0.00002177  0.92122498  0.92200550     1.02000
C1412       C  0.99895723  0.92168537  0.57829080     1.00700
C1413       C  0.07761803  0.49971781  0.92121245     1.00100
C1414       C  0.42160334  0.50007440  0.92214717     1.02100
C1415       C  0.42221497  0.49926949  0.57854354     1.01000
C1416       C  0.07841544  0.50038045  0.57770741     0.99900
C1417       C  0.07794949  0.92121715  0.49898416     0.99900
C1418       C  0.42170590  0.92207008  0.50072738     1.02500
H1419       H  0.04397928  0.95579959  0.54364640     0.29900
O1420       O  0.03130966  0.96858422  0.53095800    -1.05400
H1421       H  0.45557674  0.95606874  0.95629397     0.32000
O1422       O  0.46837088  0.96877844  0.96889935    -1.07900
O1423       O  0.00044359  0.70041694  0.66287597    -0.80500
O1424       O  0.99972610  0.69874341  0.83638031    -0.82000
O1425       O  0.05029038  0.66336031  0.74848355    -0.79000
O1426       O  0.45018564  0.66296332  0.75135169    -0.77400
O1427       O  0.41335706  0.69977954  0.75143405    -0.79200
O1428       O  0.08692919  0.70031589  0.74973144    -0.80200
O1429       O  0.00059139  0.66214964  0.79930988    -0.81500
O1430       O  0.99952984  0.66323770  0.69945461    -0.81800
Eu1431     Eu  0.00016352  0.68805576  0.74973545     2.39200
O1432       O  0.46895260  0.71846677  0.78095001    -0.89300
O1433       O  0.03117864  0.71942754  0.71934630    -0.92900
C1434       C  0.99990155  0.67220630  0.67138412     1.01800
C1435       C  0.00025807  0.67063249  0.82748868     1.01600
C1436       C  0.07832145  0.67213887  0.74874449     1.01600
C1437       C  0.42209329  0.67162975  0.75187100     0.99400
H1438       H  0.04375846  0.70586656  0.79387747     0.29200
O1439       O  0.03100753  0.71862218  0.78124310    -1.01700
H1440       H  0.45643769  0.70629649  0.70622374     0.29200
O1441       O  0.46913814  0.71900452  0.71892481    -1.04200
O1442       O  0.00032380  0.79899047  0.83764617    -0.81400
O1443       O  0.99909616  0.80053765  0.66350832    -0.81000
O1444       O  0.08608731  0.75095305  0.80129880    -0.79400
O1445       O  0.41299819  0.75021130  0.80023565    -0.82800
O1446       O  0.41351162  0.74990246  0.70004180    -0.80600
O1447       O  0.08722093  0.75072817  0.70114367    -0.79300
O1448       O  0.04938091  0.83747071  0.75094535    -0.80800
O1449       O  0.44968536  0.83687862  0.75010596    -0.82700
O1450       O  0.08633658  0.80079512  0.75126704    -0.79400
O1451       O  0.41314919  0.79985639  0.74962309    -0.82100
O1452       O  0.04909302  0.75004663  0.83787269    -0.77800
O1453       O  0.05075446  0.75050546  0.66403295    -0.77900
O1454       O  0.45022837  0.75035184  0.66314769    -0.77500
O1455       O  0.44967527  0.74950473  0.83708926    -0.81000
O1456       O  0.00008056  0.83613529  0.80103415    -0.80400
O1457       O  0.99924856  0.83717644  0.70062248    -0.78800
Eu1458     Eu  0.99964621  0.74928118  0.81206804     2.39800
Eu1459     Eu  0.00022239  0.75031826  0.68839195     2.39600
Eu1460     Eu  0.06166427  0.75036531  0.75081190     2.38400
Eu1461     Eu  0.43830109  0.74983146  0.75019760     2.39900
Eu1462     Eu  0.99970085  0.81182549  0.75060684     2.39800
O1463       O  0.46905398  0.78102801  0.71936227    -0.93200
O1464       O  0.03046979  0.78090564  0.78172835    -0.92100
C1465       C  0.00042039  0.82717289  0.82910033     1.02000
C1466       C  0.99898655  0.82863456  0.67243809     1.00700
C1467       C  0.07720407  0.75076678  0.82940825     1.00100
C1468       C  0.42162190  0.75007599  0.82840476     1.02100
C1469       C  0.42213178  0.75008149  0.67188908     1.01000
C1470       C  0.07879707  0.75073264  0.67296244     0.99900
C1471       C  0.07751249  0.82895344  0.75116904     0.99900
C1472       C  0.42164851  0.82804757  0.74971594     1.02500
H1473       H  0.04358954  0.79418953  0.70696724     0.29900
O1474       O  0.03093767  0.78130359  0.71955924    -1.05400
H1475       H  0.45609186  0.79341361  0.79420278     0.32000
O1476       O  0.46881727  0.78072973  0.78145864    -1.07900
O1477       O  0.33687921  0.99935157  0.69932499    -0.80500
O1478       O  0.16349137  0.00121512  0.69945260    -0.82000
O1479       O  0.25183496  0.94968775  0.66265228    -0.79000
O1480       O  0.24905901  0.55026911  0.66268562    -0.77400
O1481       O  0.25070519  0.58710579  0.69970109    -0.79200
O1482       O  0.25019812  0.91281766  0.69966375    -0.80200
O1483       O  0.20014438  0.00058557  0.66249141    -0.81500
O1484       O  0.30014129  0.99956360  0.66248796    -0.81800
Eu1485     Eu  0.25019761  0.00002641  0.68754771     2.39200
O1486       O  0.21911723  0.53130361  0.71872952    -0.89300
O1487       O  0.28097941  0.96916753  0.71864917    -0.92900
C1488       C  0.32819942  0.99922509  0.67116887     1.01800
C1489       C  0.17207814  0.00114972  0.67130780     1.01600
C1490       C  0.25134470  0.92158372  0.67157458     1.01600
C1491       C  0.24991164  0.57834505  0.67159830     0.99400
H1492       H  0.20642723  0.95640629  0.70566537     0.29200
O1493       O  0.21911137  0.96910412  0.71839717    -1.01700
H1494       H  0.29375551  0.54402923  0.70580654     0.29200
O1495       O  0.28099711  0.53129797  0.71845269    -1.04200
O1496       O  0.16280978  0.00037608  0.79921847    -0.81400
O1497       O  0.33662333  0.00009352  0.79962269    -0.81000
O1498       O  0.19988334  0.91349345  0.74995973    -0.79400
O1499       O  0.20051282  0.58758345  0.74917582    -0.82800
O1500       O  0.29971329  0.58739066  0.75105479    -0.80600
O1501       O  0.30042990  0.91350412  0.74905270    -0.79300
O1502       O  0.24822571  0.94970719  0.83668375    -0.80800
O1503       O  0.25084148  0.55017557  0.83681614    -0.82700
O1504       O  0.24971354  0.91289833  0.79969236    -0.79400
O1505       O  0.25066420  0.58696469  0.79990593    -0.82100
O1506       O  0.16312479  0.95038747  0.74984262    -0.77800
O1507       O  0.33707171  0.95044573  0.74918787    -0.77900
O1508       O  0.33649808  0.55056740  0.75101117    -0.77500
O1509       O  0.16358163  0.55092697  0.74900339    -0.81000
O1510       O  0.19947982  0.00048923  0.83612046    -0.80400
O1511       O  0.29990974  0.99947990  0.83652610    -0.78800
Eu1512     Eu  0.18842289  0.00044726  0.74943159     2.39800
Eu1513     Eu  0.31177785  0.00024658  0.74949683     2.39600
Eu1514     Eu  0.25006498  0.93821485  0.74956949     2.38400
Eu1515     Eu  0.25011007  0.56199517  0.74977308     2.39900
Eu1516     Eu  0.24983322  0.99995331  0.81148400     2.39800
O1517       O  0.28083476  0.53109432  0.78084755    -0.93200
O1518       O  0.21901654  0.96917035  0.78040114    -0.92100
C1519       C  0.17140368  0.00051407  0.82738236     1.02000
C1520       C  0.32800505  0.99971702  0.82777463     1.00700
C1521       C  0.17179395  0.92218840  0.75003474     1.00100
C1522       C  0.17242488  0.57905106  0.74891039     1.02100
C1523       C  0.32777295  0.57874786  0.75147104     1.01000
C1524       C  0.32851168  0.92229387  0.74901700     0.99900
C1525       C  0.24876272  0.92156426  0.82784717     0.99900
C1526       C  0.25098067  0.57833389  0.82805636     1.02500
H1527       H  0.29360438  0.95626983  0.79326466     0.29900
O1528       O  0.28097450  0.96907089  0.78055843    -1.05400
H1529       H  0.20638613  0.54418669  0.79356138     0.32000
O1530       O  0.21901760  0.53134266  0.78088171    -1.07900
O1531       O  0.19959834  0.66294274  0.00128017    -0.80500
O1532       O  0.19996913  0.83701182  0.00024325    -0.82000
O1533       O  0.16363385  0.75055177  0.55087475    -0.79000
O1534       O  0.16265972  0.75086572  0.95069691    -0.77400
O1535       O  0.19934894  0.75084610  0.91379326    -0.79200
O1536       O  0.20032843  0.75005467  0.58774210    -0.80200
O1537       O  0.16316334  0.80024233  0.99998883    -0.81500
O1538       O  0.16304263  0.70001825  0.00154612    -0.81800
Eu1539     Eu  0.18808569  0.75012665  0.00059651     2.39200
O1540       O  0.21884334  0.78103871  0.96952773    -0.89300
O1541       O  0.21916123  0.71901090  0.53172023    -0.92900
C1542       C  0.17156205  0.67180467  0.00165719     1.01800
C1543       C  0.17189217  0.82837840  0.99998718     1.01600
C1544       C  0.17223219  0.75043552  0.57900982     1.01600
C1545       C  0.17129363  0.75113763  0.92252522     0.99400
H1546       H  0.20684099  0.79388110  0.54445632     0.29200
O1547       O  0.21942801  0.78105325  0.53171660    -1.01700
H1548       H  0.20573182  0.70618024  0.95674028     0.29200
O1549       O  0.21851379  0.71887210  0.96937693    -1.04200
O1550       O  0.30002638  0.83681322  0.00035640    -0.81400
O1551       O  0.29942349  0.66245817  0.99947728    -0.81000
O1552       O  0.25047931  0.79988401  0.58770128    -0.79400
O1553       O  0.24896608  0.80017946  0.91316164    -0.82800
O1554       O  0.25016857  0.69965236  0.91362211    -0.80600
O1555       O  0.25041822  0.69969561  0.58756311    -0.79300
O1556       O  0.33729693  0.74940615  0.54959825    -0.80800
O1557       O  0.33608618  0.75016156  0.94958107    -0.82700
O1558       O  0.30087442  0.74986968  0.58678870    -0.79400
O1559       O  0.29918440  0.75034999  0.91293978    -0.82100
O1560       O  0.25187531  0.83690141  0.55082706    -0.77800
O1561       O  0.24873886  0.66287613  0.55053834    -0.77900
O1562       O  0.24993457  0.66288796  0.95056778    -0.77500
O1563       O  0.24832213  0.83716808  0.95001010    -0.81000
O1564       O  0.33657526  0.79971141  0.00075699    -0.80400
O1565       O  0.33611755  0.69936793  0.99871502    -0.78800
Eu1566     Eu  0.24994434  0.81194991  0.00022832     2.39800
Eu1567     Eu  0.24952148  0.68803396  0.00051978     2.39600
Eu1568     Eu  0.25040031  0.74982625  0.56246002     2.38400
Eu1569     Eu  0.24945756  0.74999689  0.93844320     2.39900
Eu1570     Eu  0.31133998  0.74969725  0.99991153     2.39800
O1571       O  0.28029029  0.71879263  0.96921737    -0.93200
O1572       O  0.28131174  0.78070804  0.53141641    -0.92100
C1573       C  0.32806479  0.82793168  0.00077246     1.02000
C1574       C  0.32749436  0.67117792  0.99868423     1.00700
C1575       C  0.25129298  0.82800359  0.57890534     1.00100
C1576       C  0.24828371  0.82835175  0.92187948     1.02100
C1577       C  0.25026860  0.67149103  0.92242043     1.01000
C1578       C  0.24938385  0.67162341  0.57864926     0.99900
C1579       C  0.32890507  0.74961770  0.57781050     0.99900
C1580       C  0.32729242  0.75043696  0.92146103     1.02500
H1581       H  0.29380478  0.70580053  0.54383971     0.29900
O1582       O  0.28105733  0.71864962  0.53129424    -1.05400
H1583       H  0.29328891  0.79379148  0.95625991     0.32000
O1584       O  0.28067071  0.78103009  0.96901223    -1.07900
C1585       C  0.23319911  0.59797072  0.62092106    -0.21700
C1586       C  0.24994794  0.60221004  0.64785725    -0.09700
C1587       C  0.26655783  0.62936256  0.65182133     0.29200
C1588       C  0.26601953  0.65196542  0.62932948    -0.21700
C1589       C  0.24924651  0.64774909  0.60240065    -0.09700
C1590       C  0.23273956  0.62053341  0.59837962     0.29200
F1591       F  0.21544891  0.61611929  0.57310225    -0.20200
H1592       H  0.22003782  0.57733799  0.61753985     0.17500
H1593       H  0.27923354  0.67256708  0.63269380     0.17500
F1594       F  0.28413681  0.63360633  0.67692993    -0.20200
C1595       C  0.26931514  0.87810326  0.59903254    -0.21700
C1596       C  0.25144108  0.85179087  0.60273460    -0.09700
C1597       C  0.23370814  0.84853969  0.62926279     0.29200
C1598       C  0.23402990  0.87122430  0.65168403    -0.21700
C1599       C  0.25178349  0.89760636  0.64793119    -0.09700
C1600       C  0.26963964  0.90080013  0.62147556     0.29200
F1601       F  0.28808186  0.92538429  0.61775980    -0.20200
H1602       H  0.28340136  0.88086040  0.57892157     0.17500
H1603       H  0.21989129  0.86846740  0.67175959     0.17500
F1604       F  0.21523342  0.82398021  0.63300179    -0.20200
C1605       C  0.23414681  0.90308292  0.87995096    -0.21700
C1606       C  0.24835358  0.89753528  0.85172944    -0.09700
C1607       C  0.26219524  0.86894557  0.84673945     0.29200
C1608       C  0.26181246  0.84657562  0.86952904    -0.21700
C1609       C  0.24780830  0.85218208  0.89781800    -0.09700
C1610       C  0.23371887  0.88066340  0.90274073     0.29200
F1611       F  0.21882131  0.88659080  0.92923862    -0.20200
H1612       H  0.22297942  0.92472288  0.88425754     0.17500
H1613       H  0.27303963  0.82496641  0.86521954     0.17500
F1614       F  0.27698529  0.86288935  0.82021312    -0.20200
C1615       C  0.25313122  0.65571854  0.86756956    -0.21700
C1616       C  0.25076213  0.64744273  0.89847971    -0.09700
C1617       C  0.24883842  0.61616294  0.90593158     0.29200
C1618       C  0.24913839  0.59403512  0.88298235    -0.21700
C1619       C  0.25127781  0.60232866  0.85205511    -0.09700
C1620       C  0.25338897  0.63359208  0.84462103     0.29200
F1621       F  0.25574998  0.64304543  0.81522106    -0.20200
H1622       H  0.25479359  0.67948737  0.86096393     0.17500
H1623       H  0.24743710  0.57026767  0.88958532     0.17500
F1624       F  0.24636267  0.60670354  0.93532380    -0.20200
C1625       C  0.36726449  0.65609209  0.75022567    -0.21700
C1626       C  0.39808546  0.64773318  0.75275633    -0.09700
C1627       C  0.40537726  0.61652385  0.75584016     0.29200
C1628       C  0.38243839  0.59444782  0.75553623    -0.21700
C1629       C  0.35166693  0.60276004  0.75242548    -0.09700
C1630       C  0.34430980  0.63404393  0.75014129     0.29200
F1631       F  0.31501540  0.64358158  0.74749209    -0.20200
H1632       H  0.36074994  0.67984572  0.74802021     0.17500
H1633       H  0.38893072  0.57069217  0.75776520     0.17500
F1634       F  0.43461792  0.60709741  0.75927043    -0.20200
C1635       C  0.40584937  0.88298448  0.74783264    -0.21700
C1636       C  0.39764076  0.85199462  0.74942555    -0.09700
C1637       C  0.36645742  0.84445674  0.75075893     0.29200
C1638       C  0.34433524  0.86737753  0.75054240    -0.21700
C1639       C  0.35253299  0.89836083  0.74897808    -0.09700
C1640       C  0.38372548  0.90590990  0.74757531     0.29200
F1641       F  0.39311822  0.93538555  0.74585878    -0.20200
H1642       H  0.42955360  0.88966584  0.74670957     0.17500
H1643       H  0.32063512  0.86069591  0.75171812     0.17500
F1644       F  0.35707408  0.81498326  0.75243298    -0.20200
C1645       C  0.13282179  0.65619176  0.75385416    -0.21700
C1646       C  0.10234079  0.64825366  0.74817116    -0.09700
C1647       C  0.09530445  0.61740245  0.74228986     0.29200
C1648       C  0.11817381  0.59523792  0.74256279    -0.21700
C1649       C  0.14860702  0.60312903  0.74850161    -0.09700
C1650       C  0.15571468  0.63403399  0.75402953     0.29200
F1651       F  0.18465511  0.64300116  0.76011390    -0.20200
H1652       H  0.13905455  0.67964876  0.75852807     0.17500
H1653       H  0.11194021  0.57177707  0.73790473     0.17500
F1654       F  0.06641607  0.60846401  0.73593871    -0.20200
C1655       C  0.13231740  0.84475172  0.74947836    -0.21700
C1656       C  0.10141828  0.85304811  0.75106711    -0.09700
C1657       C  0.09396981  0.88437303  0.75234981     0.29200
C1658       C  0.11688817  0.90651514  0.75194311    -0.21700
C1659       C  0.14779262  0.89819455  0.75034727    -0.09700
C1660       C  0.15522054  0.86687184  0.74914337     0.29200
F1661       F  0.18458811  0.85733806  0.74755271    -0.20200
H1662       H  0.13895786  0.82095673  0.74840776     0.17500
H1663       H  0.11027644  0.93032006  0.75299067     0.17500
F1664       F  0.06459711  0.89386378  0.75414338    -0.20200
C1665       C  0.40633774  0.75132371  0.61692134    -0.21700
C1666       C  0.39815837  0.74981593  0.64791996    -0.09700
C1667       C  0.36699300  0.74795010  0.65547989     0.29200
C1668       C  0.34487030  0.74783741  0.63261446    -0.21700
C1669       C  0.35301525  0.74952017  0.60163326    -0.09700
C1670       C  0.38419102  0.75115344  0.59403204     0.29200
F1671       F  0.39352482  0.75274436  0.56454370    -0.20200
H1672       H  0.43002691  0.75272362  0.61021502     0.17500
H1673       H  0.32119402  0.74637954  0.63935122     0.17500
F1674       F  0.35761230  0.74612458  0.68493637    -0.20200
C1675       C  0.15627571  0.75310012  0.63389268    -0.21700
C1676       C  0.14819343  0.75085375  0.60293523    -0.09700
C1677       C  0.11703530  0.74904301  0.59534707     0.29200
C1678       C  0.09485333  0.74908881  0.61817899    -0.21700
C1679       C  0.10292252  0.75104815  0.64914021    -0.09700
C1680       C  0.13405827  0.75326529  0.65674233     0.29200
F1681       F  0.14328455  0.75572028  0.68619234    -0.20200
H1682       H  0.17993860  0.75480089  0.64058879     0.17500
H1683       H  0.07119988  0.74744074  0.61143821     0.17500
F1684       F  0.10771834  0.74701788  0.56589823    -0.20200
C1685       C  0.11639272  0.75068585  0.90692972    -0.21700
C1686       C  0.14730825  0.75161964  0.89859902    -0.09700
C1687       C  0.15477955  0.75279928  0.86731998     0.29200
C1688       C  0.13191055  0.75259422  0.84522153    -0.21700
C1689       C  0.10101394  0.75133498  0.85350891    -0.09700
C1690       C  0.09349426  0.75058315  0.88480613     0.29200
F1691       F  0.06408444  0.74962312  0.89428928    -0.20200
H1692       H  0.10975963  0.74988596  0.93071712     0.17500
H1693       H  0.13858527  0.75338388  0.82144737     0.17500
F1694       F  0.18415726  0.75413261  0.85779808    -0.20200
C1695       C  0.36671765  0.74972875  0.84402026    -0.21700
C1696       C  0.39761493  0.75073473  0.85235177    -0.09700
C1697       C  0.40501418  0.75248009  0.88361368     0.29200
C1698       C  0.38208467  0.75243569  0.90571046    -0.21700
C1699       C  0.35120234  0.75094721  0.89740960    -0.09700
C1700       C  0.34376901  0.74995699  0.86611761     0.29200
F1701       F  0.31438108  0.74908484  0.85661033    -0.20200
H1702       H  0.36013034  0.74866315  0.82024132     0.17500
H1703       H  0.38868731  0.75360794  0.92947977     0.17500
F1704       F  0.43436174  0.75438045  0.89309616    -0.20200
C1705       C  0.40565919  0.86735729  0.50546806    -0.21700
C1706       C  0.39767984  0.89814462  0.50096376    -0.09700
C1707       C  0.36616153  0.90561476  0.99683866     0.29200
C1708       C  0.34403999  0.88270565  0.99689534    -0.21700
C1709       C  0.35258499  0.85177986  0.50111944    -0.09700
C1710       C  0.38352779  0.84443999  0.50558566     0.29200
F1711       F  0.39260166  0.81519227  0.51036788    -0.20200
H1712       H  0.42917653  0.86086030  0.50907166     0.17500
H1713       H  0.32052127  0.88923146  0.99335774     0.17500
F1714       F  0.35704774  0.93488198  0.99223597    -0.20200
C1715       C  0.38216668  0.65553371  0.00331001    -0.21700
C1716       C  0.35183532  0.64746873  0.49810889    -0.09700
C1717       C  0.34476083  0.61626216  0.49472021     0.29200
C1718       C  0.36786707  0.59432985  0.49486802    -0.21700
C1719       C  0.39859103  0.60277228  0.49812734    -0.09700
C1720       C  0.40530487  0.63359971  0.00326405     0.29200
F1721       F  0.43425254  0.64291444  0.00878058    -0.20200
H1722       H  0.38824457  0.67905277  0.00787322     0.17500
H1723       H  0.36153702  0.57057350  0.49232730     0.17500
F1724       F  0.31560518  0.60670997  0.49100754    -0.20200
C1725       C  0.13279996  0.90568241  0.49980046    -0.21700
C1726       C  0.10192484  0.89725417  0.49871733    -0.09700
C1727       C  0.09414619  0.86599147  0.99661169     0.29200
C1728       C  0.11712799  0.84394216  0.99694501    -0.21700
C1729       C  0.14842711  0.85233291  0.49923462    -0.09700
C1730       C  0.15578849  0.88364761  0.50002879     0.29200
F1731       F  0.18514198  0.89323702  0.50117714    -0.20200
H1732       H  0.13935149  0.92949969  0.50062545     0.17500
H1733       H  0.11065619  0.82017180  0.99495297     0.17500
F1734       F  0.06487844  0.85651041  0.99372631    -0.20200
C1735       C  0.09456781  0.63233486  0.50491038    -0.21700
C1736       C  0.10266717  0.60143981  0.50152189    -0.09700
C1737       C  0.13369863  0.59397222  0.00474455     0.29200
C1738       C  0.15578594  0.61691254  0.00475207    -0.21700
C1739       C  0.14777949  0.64778430  0.50206053    -0.09700
C1740       C  0.11670178  0.65523049  0.50526713     0.29200
F1741       F  0.10746006  0.68458778  0.50891374    -0.20200
H1742       H  0.07093710  0.63895807  0.50738387     0.17500
H1743       H  0.17944460  0.61028762  0.00691349     0.17500
F1744       F  0.14301296  0.56455266  0.00767210    -0.20200
C1745       C  0.34418061  0.49834062  0.88284886    -0.21700
C1746       C  0.35231122  0.49997761  0.85184262    -0.09700
C1747       C  0.38319459  0.99975355  0.84424035     0.29200
C1748       C  0.40526430  0.99996299  0.86717069    -0.21700
C1749       C  0.39753264  0.50001389  0.89819512    -0.09700
C1750       C  0.36634672  0.49830219  0.90574122     0.29200
F1751       F  0.35701200  0.49640010  0.93520698    -0.18600
H1752       H  0.32049390  0.49699230  0.88956964     0.17500
H1753       H  0.42899390  0.00023218  0.86046588     0.17500
F1754       F  0.39269040  0.99974770  0.81476283    -0.20200
C1755       C  0.13143513  0.00533733  0.90434049    -0.21700
C1756       C  0.10141525  0.50019306  0.89706227    -0.09700
C1757       C  0.09433138  0.49428142  0.86624053     0.29200
C1758       C  0.11718691  0.49458092  0.84402468    -0.21700
C1759       C  0.14760304  0.50086270  0.85180233    -0.09700
C1760       C  0.15434114  0.00580905  0.88220896     0.29200
F1761       F  0.18328095  0.01171308  0.89127669    -0.20200
H1762       H  0.13773279  0.00945645  0.92786369     0.17500
H1763       H  0.11098854  0.48956708  0.82064603     0.17500
F1764       F  0.06544516  0.48774348  0.85741927    -0.20200
C1765       C  0.15599268  0.99697420  0.61668299    -0.21700
C1766       C  0.14769968  0.50123446  0.64767484    -0.09700
C1767       C  0.11669961  0.50515339  0.65513796     0.29200
C1768       C  0.09451346  0.50483876  0.63232534    -0.21700
C1769       C  0.10248471  0.50068890  0.60152777    -0.09700
C1770       C  0.13377719  0.99663078  0.59390627     0.29200
F1771       F  0.14279176  0.99178650  0.56467502    -0.20200
H1772       H  0.17950000  0.99341516  0.61011693     0.17500
H1773       H  0.07095736  0.50799391  0.63892268     0.17500
F1774       F  0.10759164  0.50951743  0.68441660    -0.20200
C1775       C  0.36800479  0.00342938  0.59416585    -0.21700
C1776       C  0.39824863  0.49890028  0.60247441    -0.09700
C1777       C  0.40543566  0.49466815  0.63353871     0.29200
C1778       C  0.38246775  0.49481002  0.65560276    -0.21700
C1779       C  0.35181334  0.49913610  0.64741681    -0.09700
C1780       C  0.34506237  0.00361385  0.61622578     0.29200
F1781       F  0.31606223  0.00909597  0.60704773    -0.20200
H1782       H  0.36172213  0.00760413  0.57064360     0.17500
H1783       H  0.38882560  0.49142501  0.67923051     0.17500
F1784       F  0.43457690  0.49018173  0.64280985    -0.20200
C1785       C  0.00004657  0.65499774  0.88237615    -0.21700
C1786       C  0.00060483  0.64659702  0.85141692    -0.09700
C1787       C  0.50150856  0.61527787  0.84396770     0.29200
C1788       C  0.50159473  0.59321601  0.86698372    -0.21700
C1789       C  0.00079885  0.60164706  0.89794140    -0.09700
C1790       C  0.00015587  0.63295840  0.90536908     0.29200
F1791       F  0.99946375  0.64255466  0.93480713    -0.20200
H1792       H  0.99943613  0.67880981  0.88900387     0.17500
H1793       H  0.50223947  0.56939104  0.86039834     0.17500
F1794       F  0.50227579  0.60571239  0.81451878    -0.20200
C1795       C  0.50783368  0.86701278  0.90575885    -0.21700
C1796       C  0.00029943  0.89727724  0.89811648    -0.09700
C1797       C  0.99301491  0.90417448  0.86758697     0.29200
C1798       C  0.99326149  0.88129757  0.84545103    -0.21700
C1799       C  0.00067540  0.85102541  0.85307312    -0.09700
C1800       C  0.50809623  0.84410580  0.88358461     0.29200
F1801       F  0.51608499  0.81537817  0.89207252    -0.20200
H1802       H  0.51380916  0.86100494  0.92896826     0.17500
H1803       H  0.98724003  0.88734850  0.82226710     0.17500
F1804       F  0.98502417  0.93287297  0.85903248    -0.20200
C1805       C  0.50713323  0.90513207  0.63228465    -0.21700
C1806       C  0.99837254  0.89782331  0.60232310    -0.09700
C1807       C  0.98938016  0.86764026  0.59579519     0.29200
C1808       C  0.98958080  0.84542360  0.61868764    -0.21700
C1809       C  0.99859323  0.85268421  0.64859174    -0.09700
C1810       C  0.50733135  0.88292478  0.65516959     0.29200
F1811       F  0.51684494  0.89102685  0.68349207    -0.20200
H1812       H  0.51435428  0.92806431  0.63801384     0.17500
H1813       H  0.98241800  0.82246931  0.61296574     0.17500
F1814       F  0.97991387  0.85954755  0.56745080    -0.20200
C1815       C  0.48948293  0.61871399  0.65434725    -0.21700
C1816       C  0.99944938  0.64839438  0.64732225    -0.09700
C1817       C  0.00881742  0.65484528  0.61725207     0.29200
C1818       C  0.00854903  0.63197692  0.59503777    -0.21700
C1819       C  0.99895308  0.60221113  0.60215497    -0.09700
C1820       C  0.48906899  0.59587926  0.63208539     0.29200
F1821       F  0.47841096  0.56783504  0.63982759    -0.20200
H1822       H  0.48165980  0.61316075  0.67712096     0.17500
H1823       H  0.01634260  0.63754600  0.57225784     0.17500
F1824       F  0.01895243  0.68302569  0.60932843    -0.20200
O1825       O  0.50019957  0.04970510  0.08682843    -0.80500
O1826       O  0.50009926  0.04990026  0.41310384    -0.82000
O1827       O  0.55040767  0.08639705  0.00049288    -0.79000
O1828       O  0.95044697  0.08737901  0.99855316    -0.77400
O1829       O  0.91358847  0.05065072  0.99881190    -0.79200
O1830       O  0.58691117  0.04926007  0.99985248    -0.80200
O1831       O  0.50085068  0.08668519  0.45000181    -0.81500
O1832       O  0.50017169  0.08668402  0.05010470    -0.81800
Eu1833     Eu  0.50017131  0.06173318  0.99982808     2.39200
O1834       O  0.96943305  0.03113670  0.46903025    -0.89300
O1835       O  0.53111154  0.03060539  0.03051358    -0.92900
C1836       C  0.50012658  0.07788154  0.07824486     1.01800
C1837       C  0.50052705  0.07803712  0.42186978     1.01600
C1838       C  0.57844689  0.07747260  0.00038496     1.01600
C1839       C  0.92234564  0.07879064  0.99826188     0.99400
H1840       H  0.54397454  0.04338903  0.45599761     0.29200
O1841       O  0.53122353  0.03073486  0.46872503    -1.01700
H1842       H  0.95639507  0.04392828  0.04376663     0.29200
O1843       O  0.96905051  0.03114794  0.03102862    -1.04200
O1844       O  0.49983029  0.44941449  0.41364774    -0.81400
O1845       O  0.49959046  0.44987494  0.08730827    -0.81000
O1846       O  0.58680481  0.99959985  0.44923193    -0.79400
O1847       O  0.91322316  0.99993647  0.44995180    -0.82800
O1848       O  0.91351248  0.99960110  0.05035469    -0.80600
O1849       O  0.58683977  0.99975345  0.04906974    -0.79300
O1850       O  0.54969449  0.41256785  0.99991909    -0.80800
O1851       O  0.94960013  0.41293789  0.00090927    -0.82700
O1852       O  0.58658740  0.44924226  0.99902155    -0.79400
O1853       O  0.91310230  0.45009977  0.00099092    -0.82100
O1854       O  0.54980333  0.99894198  0.41259056    -0.77800
O1855       O  0.55035061  0.00011507  0.08620404    -0.77900
O1856       O  0.95038842  0.99909050  0.08703911    -0.77500
O1857       O  0.94978659  0.99988462  0.41291619    -0.81000
O1858       O  0.50007382  0.41248199  0.45047670    -0.80400
O1859       O  0.49878571  0.41292483  0.05052768    -0.78800
Eu1860     Eu  0.49994337  0.99978941  0.43805736     2.39800
Eu1861     Eu  0.50015218  0.99978848  0.06153731     2.39600
Eu1862     Eu  0.56147517  0.99943710  0.99918547     2.38400
Eu1863     Eu  0.93809851  0.00023612  0.00006551     2.39900
Eu1864     Eu  0.49979749  0.43780166  0.00038053     2.39800
O1865       O  0.96925744  0.46907762  0.03126369    -0.93200
O1866       O  0.53048936  0.46856122  0.46898437    -0.92100
C1867       C  0.50000777  0.42126884  0.42236056     1.02000
C1868       C  0.49880129  0.42172466  0.07862210     1.00700
C1869       C  0.57792420  0.99917003  0.42113940     1.00100
C1870       C  0.92169829  0.99977259  0.42173770     1.02100
C1871       C  0.92229012  0.99906650  0.07845977     1.01000
C1872       C  0.57837719  0.00003622  0.07727169     0.99900
C1873       C  0.57778670  0.42113183  0.99927439     0.99900
C1874       C  0.92155487  0.42186460  0.00110344     1.02500
H1875       H  0.54384986  0.45567416  0.04383449     0.29900
O1876       O  0.53119002  0.46846893  0.03114784    -1.05400
H1877       H  0.95584132  0.45605376  0.45663280     0.32000
O1878       O  0.96862646  0.46878030  0.46922943    -1.07900
O1879       O  0.50012909  0.20039833  0.16301775    -0.80500
O1880       O  0.49956843  0.19910373  0.33647138    -0.82000
O1881       O  0.54987740  0.16343027  0.24873076    -0.79000
O1882       O  0.94995568  0.16309131  0.25084169    -0.77400
O1883       O  0.91307891  0.19984469  0.25112066    -0.79200
O1884       O  0.58659327  0.20027942  0.24967772    -0.80200
O1885       O  0.50011244  0.16250271  0.29940319    -0.81500
O1886       O  0.49985572  0.16331286  0.19962239    -0.81800
Eu1887     Eu  0.49987728  0.18826500  0.24981604     2.39200
O1888       O  0.96875505  0.21869883  0.28108046    -0.89300
O1889       O  0.53080181  0.21955925  0.21932863    -0.92900
C1890       C  0.50001586  0.17217991  0.17151899     1.01800
C1891       C  0.49989847  0.17099960  0.32756994     1.01600
C1892       C  0.57792735  0.17211186  0.24888820     1.01600
C1893       C  0.92185026  0.17170030  0.25125264     0.99400
H1894       H  0.54357584  0.20603737  0.29393869     0.29200
O1895       O  0.53082100  0.21877814  0.28129240    -1.01700
H1896       H  0.95609955  0.20634027  0.20630007     0.29200
O1897       O  0.96876588  0.21908487  0.21899876    -1.04200
O1898       O  0.50021317  0.29928497  0.33768975    -0.81400
O1899       O  0.49849455  0.30066408  0.16369047    -0.81000
O1900       O  0.58605965  0.25127929  0.30118569    -0.79400
O1901       O  0.91284293  0.25015932  0.30036442    -0.82800
O1902       O  0.91293517  0.24988521  0.20028089    -0.80600
O1903       O  0.58671456  0.25052756  0.20085644    -0.79300
O1904       O  0.54933055  0.33740282  0.25107636    -0.80800
O1905       O  0.94948300  0.33696372  0.24996607    -0.82700
O1906       O  0.58625703  0.30069156  0.25111690    -0.79400
O1907       O  0.91292189  0.29996093  0.24937716    -0.82100
O1908       O  0.54911355  0.25059241  0.33781633    -0.77800
O1909       O  0.55015436  0.25040690  0.16383193    -0.77900
O1910       O  0.94960606  0.25018281  0.16334279    -0.77500
O1911       O  0.94961187  0.24963446  0.33713123    -0.81000
O1912       O  0.49982472  0.33645017  0.30109745    -0.80400
O1913       O  0.49893060  0.33729357  0.20081981    -0.78800
Eu1914     Eu  0.49955284  0.24956317  0.31210195     2.39800
Eu1915     Eu  0.49974781  0.25038297  0.18841876     2.39600
Eu1916     Eu  0.56143983  0.25039911  0.25071315     2.38400
Eu1917     Eu  0.93800928  0.24993494  0.25029815     2.39900
Eu1918     Eu  0.49950474  0.31194443  0.25070792     2.39800
O1919       O  0.96877587  0.28113589  0.21950926    -0.93200
O1920       O  0.53037055  0.28103876  0.28167407    -0.92100
C1921       C  0.50024033  0.32747469  0.32916444     1.02000
C1922       C  0.49850497  0.32875133  0.17265127     1.00700
C1923       C  0.57722827  0.25130772  0.32932507     1.00100
C1924       C  0.92154109  0.25003942  0.32850586     1.02100
C1925       C  0.92150901  0.24994814  0.17211527     1.01000
C1926       C  0.57821882  0.25050384  0.17268896     0.99900
C1927       C  0.57746020  0.32884822  0.25120486     0.99900
C1928       C  0.92144798  0.32814050  0.24937548     1.02500
H1929       H  0.54323492  0.29421657  0.20690190     0.29900
O1930       O  0.53060068  0.28135088  0.21953372    -1.05400
H1931       H  0.95583851  0.29360790  0.29428476     0.32000
O1932       O  0.96855616  0.28090998  0.28154502    -1.07900
O1933       O  0.83677588  0.49944434  0.19958806    -0.80500
O1934       O  0.66329097  0.50053987  0.19972523    -0.82000
O1935       O  0.75172328  0.44976713  0.16263920    -0.79000
O1936       O  0.74902653  0.05037946  0.16245945    -0.77400
O1937       O  0.75071059  0.08720937  0.19948745    -0.79200
O1938       O  0.75000972  0.41287671  0.19962493    -0.80200
O1939       O  0.69991226  0.50009335  0.16271549    -0.81500
O1940       O  0.80005782  0.49962400  0.16272287    -0.81800
Eu1941     Eu  0.75000129  0.50006041  0.18765149     2.39200
O1942       O  0.71889659  0.03133554  0.21849734    -0.89300
O1943       O  0.78081298  0.46925910  0.21876505    -0.92900
C1944       C  0.82811525  0.49930631  0.17143681     1.01800
C1945       C  0.67185725  0.50038727  0.17156929     1.01600
C1946       C  0.75117383  0.42165178  0.17152908     1.01600
C1947       C  0.74995961  0.07844356  0.17138748     0.99400
H1948       H  0.70631052  0.45632523  0.20586049     0.29200
O1949       O  0.71897922  0.46907513  0.21855459    -1.01700
H1950       H  0.79354229  0.04400871  0.20552000     0.29200
O1951       O  0.78076520  0.03131966  0.21818844    -1.04200
O1952       O  0.66290251  0.50007676  0.29968321    -0.81400
O1953       O  0.83666651  0.50014605  0.29969083    -0.81000
O1954       O  0.69989452  0.41331040  0.25017221    -0.79400
O1955       O  0.70024018  0.08754357  0.24866739    -0.82800
O1956       O  0.79951767  0.08740694  0.25038930    -0.80600
O1957       O  0.80024809  0.41344893  0.24890944    -0.79300
O1958       O  0.74872036  0.44978855  0.33676177    -0.80800
O1959       O  0.75079598  0.05018905  0.33663491    -0.82700
O1960       O  0.74940924  0.41301261  0.29979137    -0.79400
O1961       O  0.75050259  0.08697079  0.29972467    -0.82100
O1962       O  0.66310161  0.45016347  0.25032037    -0.77800
O1963       O  0.83682010  0.45046153  0.24915299    -0.77900
O1964       O  0.83626496  0.05054688  0.25018596    -0.77500
O1965       O  0.66335686  0.05086451  0.24880161    -0.81000
O1966       O  0.69967661  0.50023776  0.33649660    -0.80400
O1967       O  0.80001811  0.49970848  0.33665021    -0.78800
Eu1968     Eu  0.68826020  0.50027148  0.24970936     2.39800
Eu1969     Eu  0.81159936  0.50032304  0.24964817     2.39600
Eu1970     Eu  0.74996937  0.43820689  0.24963617     2.38400
Eu1971     Eu  0.74990381  0.06204022  0.24952279     2.39900
Eu1972     Eu  0.74988944  0.49999658  0.31162680     2.39800
O1973       O  0.78072793  0.03118025  0.28058501    -0.93200
O1974       O  0.71904164  0.46913608  0.28060774    -0.92100
C1975       C  0.67158293  0.50018151  0.32782961     1.02000
C1976       C  0.82810765  0.49984629  0.32786401     1.00700
C1977       C  0.67180180  0.42197734  0.25041475     1.00100
C1978       C  0.67215134  0.07899999  0.24849504     1.02100
C1979       C  0.82757096  0.07873961  0.25057118     1.01000
C1980       C  0.82830344  0.42229373  0.24887119     0.99900
C1981       C  0.74884023  0.42163377  0.32796473     0.99900
C1982       C  0.75086979  0.07835460  0.32788677     1.02500
H1983       H  0.79359691  0.45624762  0.29334306     0.29900
O1984       O  0.78092284  0.46903874  0.28066969    -1.05400
H1985       H  0.70618884  0.04419539  0.29333763     0.32000
O1986       O  0.71882233  0.03137048  0.28063907    -1.07900
O1987       O  0.69981442  0.16307359  0.50097070    -0.80500
O1988       O  0.70030436  0.33710161  0.50090376    -0.82000
O1989       O  0.66297947  0.25032472  0.05042166    -0.79000
O1990       O  0.66284762  0.25139306  0.45075668    -0.77400
O1991       O  0.69950764  0.25126267  0.41382726    -0.79200
O1992       O  0.69962599  0.24983539  0.08733340    -0.80200
O1993       O  0.66348498  0.30035263  0.50055963    -0.81500
O1994       O  0.66321722  0.20010657  0.50147656    -0.81800
Eu1995     Eu  0.68829939  0.25018527  0.50074194     2.39200
O1996       O  0.71909117  0.28117063  0.46983455    -0.89300
O1997       O  0.71874261  0.21893506  0.03154314    -0.92900
C1998       C  0.67177090  0.17190378  0.50142549     1.01800
C1999       C  0.67221925  0.32848633  0.50069930     1.01600
C2000       C  0.67153590  0.25015704  0.07856844     1.01600
C2001       C  0.67145032  0.25171787  0.42255975     0.99400
H2002       H  0.70632426  0.29383551  0.04417612     0.29200
O2003       O  0.71896601  0.28102751  0.03147022    -1.01700
H2004       H  0.70585478  0.20632493  0.45674040     0.29200
O2005       O  0.71864849  0.21895712  0.46942497    -1.04200
O2006       O  0.80023688  0.33680304  0.50110240    -0.81400
O2007       O  0.79973496  0.16266331  0.49946481    -0.81000
O2008       O  0.74977326  0.29998658  0.08749473    -0.79400
O2009       O  0.74884299  0.30043470  0.41372462    -0.82800
O2010       O  0.75020843  0.19978484  0.41360950    -0.80600
O2011       O  0.75019423  0.19977402  0.08748694    -0.79300
O2012       O  0.83673249  0.24928377  0.04974906    -0.80800
O2013       O  0.83618384  0.25012426  0.44973315    -0.82700
O2014       O  0.80022816  0.25000758  0.08686089    -0.79400
O2015       O  0.79926658  0.25047382  0.41310526    -0.82100
O2016       O  0.75135447  0.33695916  0.05058628    -0.77800
O2017       O  0.74863736  0.16294278  0.05045692    -0.77900
O2018       O  0.75019476  0.16295530  0.45047981    -0.77500
O2019       O  0.74899283  0.33728123  0.45064631    -0.81000
O2020       O  0.83677978  0.29971349  0.50108784    -0.80400
O2021       O  0.83643583  0.19954063  0.49882178    -0.78800
Eu2022     Eu  0.75022005  0.31189626  0.50071850     2.39800
Eu2023     Eu  0.74975627  0.18808498  0.50043572     2.39600
Eu2024     Eu  0.74985606  0.24985413  0.06232063     2.38400
Eu2025     Eu  0.74957555  0.25012724  0.43860968     2.39900
Eu2026     Eu  0.81154099  0.24972154  0.50007849     2.39800
O2027       O  0.78051563  0.21891366  0.46924773    -0.93200
O2028       O  0.78083217  0.28066804  0.03128793    -0.92100
C2029       C  0.82827187  0.32792862  0.50136300     1.02000
C2030       C  0.82781255  0.17136483  0.49875437     1.00700
C2031       C  0.75066564  0.32810409  0.07867996     1.00100
C2032       C  0.74857027  0.32859680  0.42248767     1.02100
C2033       C  0.75041116  0.17159154  0.42234382     1.01000
C2034       C  0.74930199  0.17170454  0.07856023     0.99900
C2035       C  0.82827951  0.24961640  0.07795019     0.99900
C2036       C  0.82737130  0.25045410  0.42162437     1.02500
H2037       H  0.79337813  0.20582927  0.04379943     0.29900
O2038       O  0.78063210  0.21866803  0.03124286    -1.05400
H2039       H  0.79346922  0.29387483  0.45657185     0.32000
O2040       O  0.78084118  0.28107858  0.46928016    -1.07900
C2041       C  0.73295975  0.09823698  0.12093932    -0.21700
C2042       C  0.75009048  0.10227809  0.14765388    -0.09700
C2043       C  0.76711417  0.12919948  0.15141081     0.29200
C2044       C  0.76653406  0.15183135  0.12894636    -0.21700
C2045       C  0.74931516  0.14782936  0.10227026    -0.09700
C2046       C  0.73246684  0.12081098  0.09843125     0.29200
F2047       F  0.71478700  0.11663465  0.07338564    -0.20200
H2048       H  0.71950344  0.07776862  0.11772986     0.17500
H2049       H  0.78002671  0.17228072  0.13212657     0.17500
F2050       F  0.78509331  0.13317774  0.17627928    -0.20200
C2051       C  0.76876166  0.37822525  0.09879066    -0.21700
C2052       C  0.75085582  0.35193062  0.10251014    -0.09700
C2053       C  0.73323680  0.34868074  0.12911865     0.29200
C2054       C  0.73370452  0.37132880  0.15158910    -0.21700
C2055       C  0.75150607  0.39768213  0.14783314    -0.09700
C2056       C  0.76925049  0.40087611  0.12129407     0.29200
F2057       F  0.78776875  0.42539944  0.11755967    -0.20200
H2058       H  0.78278044  0.38098743  0.07863317     0.17500
H2059       H  0.71964380  0.36855980  0.17171732     0.17500
F2060       F  0.71475096  0.32413940  0.13291207    -0.20200
C2061       C  0.73949105  0.40496821  0.38191155    -0.21700
C2062       C  0.74836142  0.39760662  0.35194794    -0.09700
C2063       C  0.75680859  0.36723906  0.34542370     0.29200
C2064       C  0.75664757  0.34509794  0.36840254    -0.21700
C2065       C  0.74805103  0.35250450  0.39841268    -0.09700
C2066       C  0.73917713  0.38276034  0.40487249     0.29200
F2067       F  0.72958542  0.39089112  0.43318241    -0.20200
H2068       H  0.73246134  0.42798275  0.38761360     0.17500
H2069       H  0.76369530  0.32209442  0.36267622     0.17500
F2070       F  0.76589610  0.35889096  0.31701533    -0.20200
C2071       C  0.75134189  0.15584343  0.36738040    -0.21700
C2072       C  0.75084278  0.14753169  0.39836626    -0.09700
C2073       C  0.75068961  0.11618959  0.40586303     0.29200
C2074       C  0.75088067  0.09405284  0.38289938    -0.21700
C2075       C  0.75118069  0.10237885  0.35190317    -0.09700
C2076       C  0.75149946  0.13370821  0.34442357     0.29200
F2077       F  0.75187157  0.14323079  0.31495655    -0.20200
H2078       H  0.75153513  0.17965354  0.36071617     0.17500
H2079       H  0.75064061  0.07024055  0.38956026     0.17500
F2080       F  0.75020906  0.10665722  0.43533282    -0.20200
C2081       C  0.86699494  0.15614162  0.25065991    -0.21700
C2082       C  0.89789155  0.14773628  0.25166251    -0.09700
C2083       C  0.90530349  0.11641908  0.25280421     0.29200
C2084       C  0.88237165  0.09434587  0.25248946    -0.21700
C2085       C  0.85149340  0.10273444  0.25119257    -0.09700
C2086       C  0.84405571  0.13407788  0.25047676     0.29200
F2087       F  0.81468005  0.14368197  0.24945289    -0.20200
H2088       H  0.86039166  0.17995964  0.24986909     0.17500
H2089       H  0.88896542  0.07052716  0.25327713     0.17500
F2090       F  0.93466558  0.10685949  0.25426824    -0.20200
C2091       C  0.90559645  0.38303799  0.25121465    -0.21700
C2092       C  0.89746525  0.35208486  0.24881810    -0.09700
C2093       C  0.86637682  0.34457105  0.24603084     0.29200
C2094       C  0.84423620  0.36747099  0.24601578    -0.21700
C2095       C  0.85234701  0.39840604  0.24862447    -0.09700
C2096       C  0.88346582  0.40594647  0.25109649     0.29200
F2097       F  0.89276359  0.43538866  0.25365350    -0.20200
H2098       H  0.92923425  0.38969592  0.25336284     0.17500
H2099       H  0.82059631  0.36081720  0.24389019     0.17500
F2100       F  0.85711800  0.31514808  0.24317882    -0.20200
C2101       C  0.63278747  0.15649212  0.24813886    -0.21700
C2102       C  0.60188707  0.14813257  0.24829373    -0.09700
C2103       C  0.59443790  0.11680843  0.24805778     0.29200
C2104       C  0.61735777  0.09470618  0.24799056    -0.21700
C2105       C  0.64825705  0.10305105  0.24809457    -0.09700
C2106       C  0.65571865  0.13437596  0.24800622     0.29200
F2107       F  0.68511453  0.14390503  0.24789029    -0.20200
H2108       H  0.63939559  0.18030870  0.24819754     0.17500
H2109       H  0.61072770  0.07089589  0.24794974     0.17500
F2110       F  0.56505090  0.10725045  0.24801280    -0.20200
C2111       C  0.63227425  0.34458684  0.24906521    -0.21700
C2112       C  0.60140732  0.35289122  0.25125561    -0.09700
C2113       C  0.59402275  0.38417922  0.25333483     0.29200
C2114       C  0.61695582  0.40629573  0.25303347    -0.21700
C2115       C  0.64781809  0.39798176  0.25076385    -0.09700
C2116       C  0.65520185  0.36668637  0.24884076     0.29200
F2117       F  0.68453496  0.35717391  0.24657648    -0.20200
H2118       H  0.63886182  0.32081129  0.24739421     0.17500
H2119       H  0.61038780  0.43007832  0.25468649     0.17500
F2120       F  0.56469689  0.39365232  0.25583095    -0.20200
C2121       C  0.90568556  0.25089305  0.11715474    -0.21700
C2122       C  0.89749721  0.24963531  0.14815922    -0.09700
C2123       C  0.86630570  0.24805668  0.15571300     0.29200
C2124       C  0.84418155  0.24800968  0.13282455    -0.21700
C2125       C  0.85235447  0.24946973  0.10183192    -0.09700
C2126       C  0.88354966  0.25080245  0.09425648     0.29200
F2127       F  0.89292332  0.25220151  0.06477316    -0.20200
H2128       H  0.92938529  0.25206290  0.11044330     0.17500
H2129       H  0.82048746  0.24678758  0.13954721     0.17500
F2130       F  0.85690352  0.24647380  0.18517798    -0.20200
C2131       C  0.65563460  0.25220506  0.13347054    -0.21700
C2132       C  0.64749027  0.25044963  0.10249983    -0.09700
C2133       C  0.61630163  0.24902486  0.09494236     0.29200
C2134       C  0.59415001  0.24908355  0.11782358    -0.21700
C2135       C  0.60229243  0.25064935  0.14879768    -0.09700
C2136       C  0.63346756  0.25234963  0.15635788     0.29200
F2137       F  0.64279708  0.25426744  0.18581332    -0.20200
H2138       H  0.67932226  0.25353684  0.14016058     0.17500
H2139       H  0.57046507  0.24780374  0.11111278     0.17500
F2140       F  0.60692915  0.24742685  0.06548348    -0.20200
C2141       C  0.61650296  0.25172992  0.40690308    -0.21700
C2142       C  0.64743484  0.25241990  0.39859785    -0.09700
C2143       C  0.65488872  0.25349169  0.36729825     0.29200
C2144       C  0.63200203  0.25327856  0.34517693    -0.21700
C2145       C  0.60108842  0.25210959  0.35344350    -0.09700
C2146       C  0.59359223  0.25161490  0.38476079     0.29200
F2147       F  0.56418129  0.25083820  0.39425185    -0.20200
H2148       H  0.60986480  0.25107738  0.43069284     0.17500
H2149       H  0.63867478  0.25393115  0.32139832     0.17500
F2150       F  0.68427350  0.25467164  0.35777671    -0.20200
C2151       C  0.86668769  0.25121426  0.34417511    -0.21700
C2152       C  0.89759843  0.25055618  0.35249452    -0.09700
C2153       C  0.90507496  0.25057486  0.38378491     0.29200
C2154       C  0.88217258  0.25060060  0.40589125    -0.21700
C2155       C  0.85126065  0.25086719  0.39758237    -0.09700
C2156       C  0.84377786  0.25151158  0.36629681     0.29200
F2157       F  0.81438058  0.25247636  0.35681833    -0.20200
H2158       H  0.86005564  0.25152808  0.32038639     0.17500
H2159       H  0.88882504  0.25038974  0.42967501     0.17500
F2160       F  0.93447433  0.25060456  0.39330008    -0.20200
C2161       C  0.90537268  0.36715316  0.00563703    -0.21700
C2162       C  0.89746148  0.39799036  0.00137179    -0.09700
C2163       C  0.86619954  0.40573991  0.49885057     0.29200
C2164       C  0.84409629  0.38282139  0.49891014    -0.21700
C2165       C  0.85222334  0.35174137  0.00143413    -0.09700
C2166       C  0.88316975  0.34429907  0.00573716     0.29200
F2167       F  0.89218443  0.31500086  0.01031843    -0.20200
H2168       H  0.92889217  0.36056691  0.00905982     0.17500
H2169       H  0.82047086  0.38944936  0.49642896     0.17500
F2170       F  0.85690350  0.43513706  0.49565384    -0.20200
C2171       C  0.88272363  0.15600904  0.50125922    -0.21700
C2172       C  0.85149927  0.14739484  0.99743329    -0.09700
C2173       C  0.84443204  0.11615863  0.99427708     0.29200
C2174       C  0.86756725  0.09424108  0.99439865    -0.21700
C2175       C  0.89831377  0.10272743  0.99739300    -0.09700
C2176       C  0.90588733  0.13410837  0.50115371     0.29200
F2177       F  0.93507307  0.14374273  0.50443341    -0.20200
H2178       H  0.88900460  0.17974380  0.50410619     0.17500
H2179       H  0.86123699  0.07045807  0.99212086     0.17500
F2180       F  0.81524858  0.10655694  0.99091824    -0.20200
C2181       C  0.63257252  0.40554363  0.00054890    -0.21700
C2182       C  0.60171307  0.39716213  0.99899979    -0.09700
C2183       C  0.59435148  0.36597659  0.49886619     0.29200
C2184       C  0.61736770  0.34396369  0.49910493    -0.21700
C2185       C  0.64811390  0.35220031  0.99926458    -0.09700
C2186       C  0.65551770  0.38348327  0.00067101     0.29200
F2187       F  0.68486525  0.39301400  0.00235082    -0.20200
H2188       H  0.63913998  0.42933637  0.00183657     0.17500
H2189       H  0.61085797  0.32014533  0.49801609     0.17500
F2190       F  0.56502432  0.35637315  0.49729080    -0.20200
C2191       C  0.59436808  0.13223355  0.00425720    -0.21700
C2192       C  0.60249071  0.10134802  0.00088577    -0.09700
C2193       C  0.63404965  0.09399850  0.49927318     0.29200
C2194       C  0.65611182  0.11694911  0.49951214    -0.21700
C2195       C  0.64756551  0.14768497  0.00151802    -0.09700
C2196       C  0.61648324  0.15512875  0.00465059     0.29200
F2197       F  0.60721589  0.18448015  0.00827729    -0.20200
H2198       H  0.57073383  0.13885070  0.00671028     0.17500
H2199       H  0.67980843  0.11031052  0.49784117     0.17500
F2200       F  0.64347635  0.06455749  0.49699632    -0.20200
C2201       C  0.84422586  0.99701353  0.38248464    -0.21700
C2202       C  0.85226377  0.99918135  0.35148549    -0.09700
C2203       C  0.88333436  0.49843073  0.34428686     0.29200
C2204       C  0.90546186  0.49861366  0.36719156    -0.21700
C2205       C  0.89759392  0.99932761  0.39778295    -0.09700
C2206       C  0.86644585  0.99697207  0.40534181     0.29200
F2207       F  0.85720402  0.99441803  0.43478715    -0.18600
H2208       H  0.82056998  0.99527125  0.38922460     0.17500
H2209       H  0.92917455  0.49774254  0.36047382     0.17500
F2210       F  0.89274045  0.49694137  0.31481716    -0.20200
C2211       C  0.63166792  0.50585157  0.40476421    -0.21700
C2212       C  0.60173386  0.99930058  0.39708136    -0.09700
C2213       C  0.59556645  0.98889539  0.36729714     0.29200
C2214       C  0.61829251  0.98943434  0.34493714    -0.21700
C2215       C  0.64765282  0.00025129  0.35167035    -0.09700
C2216       C  0.65453535  0.50627260  0.38258038     0.29200
F2217       F  0.68334747  0.51308995  0.39141697    -0.20200
H2218       H  0.63785937  0.51079789  0.42815759     0.17500
H2219       H  0.61295722  0.98094825  0.32235553     0.17500
F2220       F  0.56781287  0.97752582  0.35983758    -0.20200
C2221       C  0.65578643  0.49535521  0.11702568    -0.21700
C2222       C  0.64753340  0.00098478  0.14736724    -0.09700
C2223       C  0.61656295  0.00527249  0.15472552     0.29200
C2224       C  0.59442100  0.00492638  0.13186732    -0.21700
C2225       C  0.60240512  0.00030444  0.10113486    -0.09700
C2226       C  0.63360999  0.49498275  0.09421297     0.29200
F2227       F  0.64259174  0.48959378  0.06506581    -0.20200
H2228       H  0.67927074  0.49149375  0.11054539     0.17500
H2229       H  0.57088976  0.00844444  0.13837252     0.17500
F2230       F  0.60745268  0.01005399  0.18393831    -0.20200
C2231       C  0.86809959  0.50388793  0.09458526    -0.21700
C2232       C  0.89829850  0.99858691  0.10237990    -0.09700
C2233       C  0.90543636  0.99443885  0.13346678     0.29200
C2234       C  0.88240734  0.99451716  0.15548266    -0.21700
C2235       C  0.85174087  0.99869049  0.14722252    -0.09700
C2236       C  0.84512759  0.50410997  0.11660549     0.29200
F2237       F  0.81621103  0.51006583  0.10745903    -0.20200
H2238       H  0.86189599  0.50836312  0.07109730     0.17500
H2239       H  0.88873247  0.99125065  0.17913579     0.17500
F2240       F  0.93458279  0.99012528  0.14280590    -0.20200
C2241       C  0.50121783  0.15534306  0.38240529    -0.21700
C2242       C  0.50020704  0.14696723  0.35145763    -0.09700
C2243       C  0.99960359  0.11566062  0.34395832     0.29200
C2244       C  0.99981002  0.09357922  0.36693082    -0.21700
C2245       C  0.50065172  0.10197736  0.39788872    -0.09700
C2246       C  0.50148821  0.13327617  0.40536121     0.29200
F2247       F  0.50258396  0.14283638  0.43479769    -0.20200
H2248       H  0.50184072  0.17915033  0.38904743     0.17500
H2249       H  0.99922179  0.06976480  0.36030941     0.17500
F2250       F  0.99870607  0.10612604  0.31450363    -0.20200
C2251       C  0.00862669  0.36728524  0.40575030    -0.21700
C2252       C  0.50011427  0.39735926  0.39842934    -0.09700
C2253       C  0.49177454  0.40414925  0.36814258     0.29200
C2254       C  0.49204464  0.38135953  0.34589715    -0.21700
C2255       C  0.50049137  0.35128247  0.35319301    -0.09700
C2256       C  0.00890821  0.34446875  0.38347014     0.29200
F2257       F  0.01796746  0.31595272  0.39158148    -0.20200
H2258       H  0.01542132  0.36139385  0.42876249     0.17500
H2259       H  0.48521464  0.38729084  0.32290756     0.17500
F2260       F  0.48271500  0.43264256  0.35997161    -0.20200
C2261       C  0.00700342  0.40517743  0.13257494    -0.21700
C2262       C  0.49811206  0.39791181  0.10264752    -0.09700
C2263       C  0.48886230  0.36781251  0.09613054     0.29200
C2264       C  0.48893624  0.34560901  0.11900920    -0.21700
C2265       C  0.49811564  0.35280716  0.14886544    -0.09700
C2266       C  0.00710604  0.38297198  0.15544347     0.29200
F2267       F  0.01681093  0.39097929  0.18372988    -0.20200
H2268       H  0.01442179  0.42805397  0.13827618     0.17500
H2269       H  0.48158450  0.32270996  0.11330735     0.17500
F2270       F  0.47929457  0.35978823  0.06780205    -0.20200
C2271       C  0.99659221  0.11733815  0.15558586    -0.21700
C2272       C  0.49991403  0.14822989  0.14745578    -0.09700
C2273       C  0.50304300  0.15566543  0.11630200     0.29200
C2274       C  0.50304984  0.13273125  0.09414902    -0.21700
C2275       C  0.49990292  0.10183594  0.10228705    -0.09700
C2276       C  0.99652211  0.09440563  0.13342585     0.29200
F2277       F  0.99288349  0.06505383  0.14269801    -0.20200
H2278       H  0.99389800  0.11075409  0.17925020     0.17500
H2279       H  0.50569479  0.13931747  0.07048075     0.17500
F2280       F  0.50635559  0.18503930  0.10700367    -0.20200
O2281       O  0.50011000  0.05002489  0.58702764    -0.80500
O2282       O  0.49946887  0.04961062  0.91272844    -0.82000
O2283       O  0.55082560  0.08645747  0.50072002    -0.79000
O2284       O  0.95095277  0.08746209  0.49905059    -0.77400
O2285       O  0.91408436  0.05073936  0.49898820    -0.79200
O2286       O  0.58736427  0.04936817  0.50023915    -0.80200
O2287       O  0.50057731  0.08649951  0.94957306    -0.81500
O2288       O  0.50068042  0.08692183  0.55016620    -0.81800
Eu2289     Eu  0.50064080  0.06173951  0.50006026     2.39200
O2290       O  0.96892264  0.03103508  0.96898022    -0.89300
O2291       O  0.53155764  0.03070995  0.53085716    -0.92900
C2292       C  0.50025170  0.07818501  0.57830810     1.01800
C2293       C  0.50017793  0.07774587  0.92145447     1.01600
C2294       C  0.57887110  0.07757291  0.50069449     1.01600
C2295       C  0.92284868  0.07888873  0.49869464     0.99400
H2296       H  0.54334967  0.04327574  0.95574865     0.29200
O2297       O  0.53063480  0.03063281  0.96850778    -1.01700
H2298       H  0.95675630  0.04387781  0.54379216     0.29200
O2299       O  0.96944684  0.03110811  0.53109481    -1.04200
O2300       O  0.50065776  0.44921360  0.91388297    -0.81400
O2301       O  0.49927939  0.45008995  0.58729161    -0.81000
O2302       O  0.58591632  0.99958741  0.94859848    -0.79400
O2303       O  0.91255019  0.00014563  0.95029285    -0.82800
O2304       O  0.91380523  0.99945113  0.55021566    -0.80600
O2305       O  0.58718534  0.99999194  0.54941542    -0.79300
O2306       O  0.54955666  0.41265584  0.50023774    -0.80800
O2307       O  0.94938671  0.41322912  0.50109419    -0.82700
O2308       O  0.58643095  0.44935387  0.49957042    -0.79400
O2309       O  0.91287012  0.45036175  0.50105136    -0.82100
O2310       O  0.54889831  0.99937687  0.91204456    -0.77800
O2311       O  0.55070443  0.00046966  0.58655287    -0.77900
O2312       O  0.95061796  0.99900395  0.58699047    -0.77500
O2313       O  0.94907876  0.00002524  0.91323041    -0.81000
O2314       O  0.50087706  0.41222092  0.95065780    -0.80400
O2315       O  0.49856956  0.41311764  0.55054541    -0.78800
Eu2316     Eu  0.49932246  0.99966660  0.93794077     2.39800
Eu2317     Eu  0.50051070  0.99992319  0.56180525     2.39600
Eu2318     Eu  0.56194448  0.99952704  0.49955326     2.38400
Eu2319     Eu  0.93854423  0.00024962  0.49997907     2.39900
Eu2320     Eu  0.49960987  0.43794319  0.50032818     2.39800
O2321       O  0.96903951  0.46923082  0.53119609    -0.93200
O2322       O  0.53071521  0.46846811  0.96913127    -0.92100
C2323       C  0.50101076  0.42105539  0.92257028     1.02000
C2324       C  0.49855274  0.42192294  0.57864635     1.00700
C2325       C  0.57703759  0.99953260  0.92048835     1.00100
C2326       C  0.92102269  0.00005428  0.92209913     1.02100
C2327       C  0.92254457  0.99890156  0.57833882     1.01000
C2328       C  0.57873202  0.00040177  0.57760342     0.99900
C2329       C  0.57766357  0.42123233  0.49991026     0.99900
C2330       C  0.92134378  0.42214307  0.50129812     1.02500
H2331       H  0.54357430  0.45592607  0.54383323     0.29900
O2332       O  0.53092266  0.46867325  0.53109177    -1.05400
H2333       H  0.95606319  0.45589289  0.95663640     0.32000
O2334       O  0.96879473  0.46861922  0.96928836    -1.07900
O2335       O  0.50054397  0.20072330  0.66280573    -0.80500
O2336       O  0.49953729  0.19880075  0.83645142    -0.82000
O2337       O  0.55020979  0.16355412  0.74893632    -0.79000
O2338       O  0.95012821  0.16316898  0.75074138    -0.77400
O2339       O  0.91321892  0.19988769  0.75116246    -0.79200
O2340       O  0.58685846  0.20047105  0.74993330    -0.80200
O2341       O  0.49997308  0.16227852  0.79923307    -0.81500
O2342       O  0.49983815  0.16354565  0.69938207    -0.81800
Eu2343     Eu  0.50005883  0.18827128  0.74971844     2.39200
O2344       O  0.96888399  0.21859357  0.78107967    -0.89300
O2345       O  0.53104528  0.21962724  0.71930919    -0.92900
C2346       C  0.50022489  0.17249492  0.67130440     1.01800
C2347       C  0.49974205  0.17073254  0.82742323     1.01600
C2348       C  0.57826068  0.17227722  0.74922258     1.01600
C2349       C  0.92202234  0.17175954  0.75123926     0.99400
H2350       H  0.54356063  0.20597446  0.79392033     0.29200
O2351       O  0.53083030  0.21877636  0.78131297    -1.01700
H2352       H  0.95631219  0.20653045  0.70624536     0.29200
O2353       O  0.96897053  0.21922540  0.71900187    -1.04200
O2354       O  0.50093732  0.29906868  0.83803890    -0.81400
O2355       O  0.49876159  0.30096212  0.66398125    -0.81000
O2356       O  0.58596589  0.25080960  0.80131202    -0.79400
O2357       O  0.91293824  0.25020897  0.80046321    -0.82800
O2358       O  0.91326953  0.25014955  0.70029348    -0.80600
O2359       O  0.58695705  0.25105556  0.70114360    -0.79300
O2360       O  0.54907563  0.33759755  0.75112762    -0.80800
O2361       O  0.94922799  0.33684931  0.75050111    -0.82700
O2362       O  0.58605766  0.30094166  0.75137415    -0.79400
O2363       O  0.91274228  0.29978572  0.74980342    -0.82100
O2364       O  0.54906246  0.24982542  0.83798597    -0.77800
O2365       O  0.55046949  0.25108505  0.66405335    -0.77900
O2366       O  0.94995095  0.25059599  0.66336415    -0.77500
O2367       O  0.94962680  0.24967457  0.83730874    -0.81000
O2368       O  0.50024942  0.33625562  0.80144866    -0.80400
O2369       O  0.49877064  0.33753467  0.70115281    -0.78800
Eu2370     Eu  0.49956489  0.24939643  0.81227909     2.39800
Eu2371     Eu  0.49999694  0.25059589  0.68851813     2.39600
Eu2372     Eu  0.56147096  0.25050229  0.75087297     2.38400
Eu2373     Eu  0.93814217  0.24993742  0.75040715     2.39900
Eu2374     Eu  0.49939499  0.31198339  0.75098800     2.39800
O2375       O  0.96884792  0.28120346  0.71963604    -0.93200
O2376       O  0.53031541  0.28101117  0.78189873    -0.92100
C2377       C  0.50101497  0.32726187  0.82949686     1.02000
C2378       C  0.49853564  0.32904260  0.67295926     1.00700
C2379       C  0.57714983  0.25050994  0.82943902     1.00100
C2380       C  0.92157629  0.25014760  0.82862327     1.02100
C2381       C  0.92186093  0.25033907  0.67213306     1.01000
C2382       C  0.57851742  0.25125044  0.67296342     0.99900
C2383       C  0.57720910  0.32908894  0.75127480     0.99900
C2384       C  0.92119702  0.32798061  0.74996605     1.02500
H2385       H  0.54324063  0.29446328  0.70724913     0.29900
O2386       O  0.53062054  0.28152623  0.71981982    -1.05400
H2387       H  0.95586405  0.29353184  0.79461296     0.32000
O2388       O  0.96856110  0.28085829  0.78182767    -1.07900
O2389       O  0.83654714  0.49965559  0.69950565    -0.80500
O2390       O  0.66316525  0.50114056  0.69972864    -0.82000
O2391       O  0.75121058  0.44980546  0.66280236    -0.79000
O2392       O  0.74948209  0.05009629  0.66241968    -0.77400
O2393       O  0.75088264  0.08695957  0.69942131    -0.79200
O2394       O  0.74949827  0.41290470  0.69977400    -0.80200
O2395       O  0.69977332  0.50059289  0.66272384    -0.81500
O2396       O  0.79978378  0.49970874  0.66269202    -0.81800
Eu2397     Eu  0.74984163  0.50014132  0.68775253     2.39200
O2398       O  0.71940884  0.03122225  0.71844323    -0.89300
O2399       O  0.78064847  0.46928012  0.71883396    -0.92900
C2400       C  0.82784846  0.49950225  0.67135958     1.01800
C2401       C  0.67171280  0.50105443  0.67156117     1.01600
C2402       C  0.75059364  0.42168829  0.67168329     1.01600
C2403       C  0.75021829  0.07817455  0.67132292     0.99400
H2404       H  0.70604107  0.45652668  0.70588780     0.29200
O2405       O  0.71876058  0.46920852  0.71859905    -1.01700
H2406       H  0.79401774  0.04394914  0.70557674     0.29200
O2407       O  0.78125188  0.03124876  0.71824624    -1.04200
O2408       O  0.66289203  0.50046323  0.79972106    -0.81400
O2409       O  0.83674997  0.50019409  0.79970292    -0.81000
O2410       O  0.69952983  0.41360638  0.75013470    -0.79400
O2411       O  0.70076862  0.08770300  0.74908425    -0.82800
O2412       O  0.79987515  0.08734062  0.75041647    -0.80600
O2413       O  0.79992066  0.41340611  0.74898892    -0.79300
O2414       O  0.74866268  0.44982194  0.83682656    -0.80800
O2415       O  0.75135207  0.05005744  0.83662182    -0.82700
O2416       O  0.74922649  0.41306226  0.79981555    -0.79400
O2417       O  0.75150933  0.08685312  0.79971991    -0.82100
O2418       O  0.66278561  0.45050082  0.75006478    -0.77800
O2419       O  0.83659572  0.45031790  0.74922361    -0.77900
O2420       O  0.83666900  0.05053398  0.75040600    -0.77500
O2421       O  0.66390745  0.05100625  0.74892328    -0.81000
O2422       O  0.69968364  0.50054784  0.83653051    -0.80400
O2423       O  0.80013679  0.49989016  0.83670120    -0.78800
Eu2424     Eu  0.68818149  0.50048630  0.74973903     2.39800
Eu2425     Eu  0.81156545  0.50028677  0.74969404     2.39600
Eu2426     Eu  0.74970489  0.43831898  0.74971392     2.38400
Eu2427     Eu  0.75030943  0.06194428  0.74954065     2.39900
Eu2428     Eu  0.74990389  0.50006065  0.81171772     2.39800
O2429       O  0.78090070  0.03094463  0.78063626    -0.93200
O2430       O  0.71887569  0.46930982  0.78072331    -0.92100
C2431       C  0.67159313  0.50062279  0.82785831     1.02000
C2432       C  0.82823206  0.50004412  0.82789302     1.00700
C2433       C  0.67144590  0.42230419  0.75019602     1.00100
C2434       C  0.67267849  0.07916592  0.74887089     1.02100
C2435       C  0.82793130  0.07870979  0.75072064     1.01000
C2436       C  0.82800436  0.42216955  0.74896034     0.99900
C2437       C  0.74874941  0.42167735  0.82798923     0.99900
C2438       C  0.75186059  0.07821928  0.82787293     1.02500
H2439       H  0.79346510  0.45625356  0.79337870     0.29900
O2440       O  0.78080775  0.46906396  0.78070804    -1.05400
H2441       H  0.70649606  0.04422207  0.79333176     0.32000
O2442       O  0.71911248  0.03136551  0.78064810    -1.07900
O2443       O  0.69955644  0.16282581  0.00082387    -0.80500
O2444       O  0.70011552  0.33684387  0.00011090    -0.82000
O2445       O  0.66341979  0.25066912  0.55084792    -0.79000
O2446       O  0.66272634  0.25062922  0.95053131    -0.77400
O2447       O  0.69941801  0.25049956  0.91362977    -0.79200
O2448       O  0.70006805  0.25012118  0.58776212    -0.80200
O2449       O  0.66326589  0.30012030  0.99968906    -0.81500
O2450       O  0.66298412  0.19987847  0.00128885    -0.81800
Eu2451     Eu  0.68808882  0.24998862  0.00046202     2.39200
O2452       O  0.71894184  0.28099299  0.96959777    -0.89300
O2453       O  0.71905294  0.21902422  0.53167729    -0.92900
C2454       C  0.67151510  0.17166452  0.00127156     1.01800
C2455       C  0.67203845  0.32823961  0.99968823     1.01600
C2456       C  0.67198055  0.25059364  0.57899901     1.01600
C2457       C  0.67136519  0.25073653  0.92236127     0.99400
H2458       H  0.70668618  0.29382573  0.54451814     0.29200
O2459       O  0.71928754  0.28103053  0.53176324    -1.01700
H2460       H  0.70574487  0.20605806  0.95649372     0.29200
O2461       O  0.71846733  0.21876705  0.96917430    -1.04200
O2462       O  0.80014777  0.33673206  0.00066962    -0.81400
O2463       O  0.79930176  0.16250630  0.99925789    -0.81000
O2464       O  0.74994235  0.29991322  0.58779964    -0.79400
O2465       O  0.74868977  0.30032217  0.91347573    -0.82800
O2466       O  0.75080779  0.19962239  0.91349831    -0.80600
O2467       O  0.75025744  0.19958749  0.58748384    -0.79300
O2468       O  0.83707677  0.24944373  0.54982200    -0.80800
O2469       O  0.83592110  0.25022055  0.94958928    -0.82700
O2470       O  0.80060973  0.25004125  0.58697081    -0.79400
O2471       O  0.79909660  0.25060242  0.91286976    -0.82100
O2472       O  0.75139560  0.33690987  0.55090579    -0.77800
O2473       O  0.74877474  0.16282227  0.55039402    -0.77900
O2474       O  0.75043501  0.16283133  0.95040797    -0.77500
O2475       O  0.74883465  0.33720009  0.95038823    -0.81000
O2476       O  0.83664233  0.29958998  0.00088808    -0.80400
O2477       O  0.83599558  0.19938388  0.99840743    -0.78800
Eu2478     Eu  0.75005655  0.31181682  0.00043612     2.39800
Eu2479     Eu  0.74944661  0.18797821  0.00035211     2.39600
Eu2480     Eu  0.75018908  0.24981783  0.56254425     2.38400
Eu2481     Eu  0.74945116  0.24997986  0.93839948     2.39900
Eu2482     Eu  0.81128387  0.24964154  0.99993783     2.39800
O2483       O  0.78024067  0.21880561  0.96918841    -0.93200
O2484       O  0.78108517  0.28070742  0.53148803    -0.92100
C2485       C  0.82818224  0.32782335  0.00102372     1.02000
C2486       C  0.82735902  0.17121126  0.99835876     1.00700
C2487       C  0.75068654  0.32803676  0.57898909     1.00100
C2488       C  0.74842079  0.32848993  0.92224135     1.02100
C2489       C  0.75105718  0.17144476  0.92226959     1.01000
C2490       C  0.74935388  0.17152532  0.57851267     0.99900
C2491       C  0.82865026  0.24974417  0.57802617     0.99900
C2492       C  0.82717488  0.25064686  0.92146045     1.02500
H2493       H  0.79370322  0.20583557  0.54394105     0.29900
O2494       O  0.78095817  0.21869111  0.53139893    -1.05400
H2495       H  0.79329892  0.29376533  0.95635770     0.32000
O2496       O  0.78066375  0.28096998  0.96905827    -1.07900
C2497       C  0.73357571  0.09769857  0.62060409    -0.21700
C2498       C  0.75024339  0.10201533  0.64757610    -0.09700
C2499       C  0.76673323  0.12923163  0.65158397     0.29200
C2500       C  0.76608201  0.15186524  0.62913531    -0.21700
C2501       C  0.74933892  0.14760212  0.60219881    -0.09700
C2502       C  0.73302988  0.12027812  0.59808919     0.29200
F2503       F  0.71584405  0.11576739  0.57275647    -0.20200
H2504       H  0.72053491  0.07699587  0.61717883     0.17500
H2505       H  0.77918431  0.17253206  0.63253975     0.17500
F2506       F  0.78430016  0.13351449  0.67669468    -0.20200
C2507       C  0.76839275  0.37827075  0.59904345    -0.21700
C2508       C  0.75064714  0.35187848  0.60278526    -0.09700
C2509       C  0.73289376  0.34862039  0.62930445     0.29200
C2510       C  0.73318759  0.37131679  0.65173673    -0.21700
C2511       C  0.75089964  0.39773655  0.64798062    -0.09700
C2512       C  0.76866051  0.40098586  0.62146623     0.29200
F2513       F  0.78700173  0.42563412  0.61768482    -0.20200
H2514       H  0.78245648  0.38106901  0.57892222     0.17500
H2515       H  0.71908652  0.36852586  0.67183364     0.17500
F2516       F  0.71444926  0.32403526  0.63303270    -0.20200
C2517       C  0.73805265  0.40456791  0.88150914    -0.21700
C2518       C  0.74833633  0.39762924  0.85191122    -0.09700
C2519       C  0.75825246  0.36765796  0.84566365     0.29200
C2520       C  0.75800756  0.34542653  0.86856133    -0.21700
C2521       C  0.74794269  0.35240652  0.89820597    -0.09700
C2522       C  0.73770903  0.38228275  0.90439553     0.29200
F2523       F  0.72671745  0.38990596  0.93233446    -0.20200
H2524       H  0.72991163  0.42728081  0.88693814     0.17500
H2525       H  0.76619202  0.32273198  0.86311852     0.17500
F2526       F  0.76894916  0.35987368  0.81765805    -0.20200
C2527       C  0.75370816  0.15566824  0.86737192    -0.21700
C2528       C  0.75203255  0.14737775  0.89832453    -0.09700
C2529       C  0.75119041  0.11605059  0.90581676     0.29200
C2530       C  0.75145333  0.09391285  0.88286329    -0.21700
C2531       C  0.75259925  0.10222470  0.85188613    -0.09700
C2532       C  0.75404486  0.13352620  0.84442383     0.29200
F2533       F  0.75568923  0.14301246  0.81498647    -0.20200
H2534       H  0.75465623  0.17946549  0.86072687     0.17500
H2535       H  0.75048266  0.07011640  0.88951121     0.17500
F2536       F  0.74982974  0.10653942  0.93526485    -0.20200
C2537       C  0.86719406  0.15615857  0.75108586    -0.21700
C2538       C  0.89810662  0.14778270  0.75172306    -0.09700
C2539       C  0.90558390  0.11647715  0.75261291     0.29200
C2540       C  0.88269376  0.09437776  0.75235162    -0.21700
C2541       C  0.85179951  0.10273220  0.75137272    -0.09700
C2542       C  0.84429359  0.13406417  0.75097348     0.29200
F2543       F  0.81489129  0.14362555  0.75035771    -0.20200
H2544       H  0.86054859  0.17997207  0.75054131     0.17500
H2545       H  0.88933510  0.07056595  0.75290314     0.17500
F2546       F  0.93497088  0.10695163  0.75375540    -0.20200
C2547       C  0.90532668  0.38286847  0.74784956    -0.21700
C2548       C  0.89714525  0.35188299  0.74953876    -0.09700
C2549       C  0.86595897  0.34431761  0.75080488     0.29200
C2550       C  0.84381488  0.36722639  0.75045781    -0.21700
C2551       C  0.85200438  0.39821539  0.74887047    -0.09700
C2552       C  0.88319170  0.40577251  0.74749736     0.29200
F2553       F  0.89257561  0.43524761  0.74576107    -0.20200
H2554       H  0.92902630  0.38956802  0.74675152     0.17500
H2555       H  0.82011428  0.36053919  0.75160756     0.17500
F2556       F  0.85660077  0.31484045  0.75259519    -0.20200
C2557       C  0.63320210  0.15669791  0.74855228    -0.21700
C2558       C  0.60229780  0.14831874  0.74887315    -0.09700
C2559       C  0.59490940  0.11697843  0.74902147     0.29200
C2560       C  0.61785941  0.09489124  0.74894460    -0.21700
C2561       C  0.64875629  0.10324226  0.74871060    -0.09700
C2562       C  0.65617340  0.13458826  0.74846169     0.29200
F2563       F  0.68556176  0.14414155  0.74815616    -0.20200
H2564       H  0.63977779  0.18052359  0.74839553     0.17500
H2565       H  0.61125041  0.07107646  0.74913741     0.17500
F2566       F  0.56553923  0.10738413  0.74935360    -0.20200
C2567       C  0.63199527  0.34488020  0.74959557    -0.21700
C2568       C  0.60109469  0.35318185  0.75108017    -0.09700
C2569       C  0.59362567  0.38450610  0.75216019     0.29200
C2570       C  0.61653893  0.40664645  0.75180598    -0.21700
C2571       C  0.64744947  0.39831905  0.75040035    -0.09700
C2572       C  0.65488980  0.36699843  0.74924776     0.29200
F2573       F  0.68425897  0.35746350  0.74768832    -0.20200
H2574       H  0.63864508  0.32108355  0.74861898     0.17500
H2575       H  0.60991816  0.43045380  0.75273223     0.17500
F2576       F  0.56423766  0.39399730  0.75368040    -0.20200
C2577       C  0.90606689  0.25117416  0.61716968    -0.21700
C2578       C  0.89786976  0.25008076  0.64817892    -0.09700
C2579       C  0.86668363  0.24860479  0.65574933     0.29200
C2580       C  0.84456505  0.24844621  0.63287328    -0.21700
C2581       C  0.85273803  0.24970169  0.60187615    -0.09700
C2582       C  0.88393065  0.25096433  0.59427667     0.29200
F2583       F  0.89329941  0.25213838  0.56478055    -0.20200
H2584       H  0.92976911  0.25225848  0.61045150     0.17500
H2585       H  0.82087239  0.24730019  0.63961338     0.17500
F2586       F  0.85727903  0.24722049  0.68522270    -0.20200
C2587       C  0.65598780  0.25364310  0.63386195    -0.21700
C2588       C  0.64791834  0.25121319  0.60291247    -0.09700
C2589       C  0.61675495  0.24947632  0.59532544     0.29200
C2590       C  0.59456536  0.24961994  0.61815966    -0.21700
C2591       C  0.60263150  0.25165752  0.64912000    -0.09700
C2592       C  0.63376306  0.25396249  0.65670734     0.29200
F2593       F  0.64297662  0.25665806  0.68614028    -0.20200
H2594       H  0.67964909  0.25537311  0.64055543     0.17500
H2595       H  0.57091110  0.24795762  0.61142508     0.17500
F2596       F  0.60744338  0.24742153  0.56587724    -0.20200
C2597       C  0.61654444  0.25343902  0.90676348    -0.21700
C2598       C  0.64738383  0.25099998  0.89844686    -0.09700
C2599       C  0.65477081  0.24868203  0.86721369     0.29200
C2600       C  0.63186009  0.24860247  0.84516268    -0.21700
C2601       C  0.60102207  0.25086230  0.85345774    -0.09700
C2602       C  0.59361275  0.25341579  0.88467968     0.29200
F2603       F  0.56428677  0.25607147  0.89410672    -0.20200
H2604       H  0.61000236  0.25542971  0.93050695     0.17500
H2605       H  0.63843838  0.24659309  0.82143250     0.17500
F2606       F  0.68408775  0.24623741  0.85771213    -0.20200
C2607       C  0.86671758  0.25229999  0.84415245    -0.21700
C2608       C  0.89758179  0.25083915  0.85254954    -0.09700
C2609       C  0.90496264  0.25022110  0.88385465     0.29200
C2610       C  0.88199788  0.25027449  0.90588810    -0.21700
C2611       C  0.85112385  0.25122303  0.89749451    -0.09700
C2612       C  0.84374789  0.25265043  0.86620926     0.29200
F2613       F  0.81440738  0.25445889  0.85667210    -0.20200
H2614       H  0.86017144  0.25320738  0.82035438     0.17500
H2615       H  0.88857189  0.24947806  0.92968182     0.17500
F2616       F  0.93432566  0.24950720  0.89345464    -0.20200
C2617       C  0.90542025  0.36733606  0.50490475    -0.21700
C2618       C  0.89730420  0.39824914  0.50172571    -0.09700
C2619       C  0.86648061  0.40545491  0.99731497     0.29200
C2620       C  0.84429287  0.38259860  0.99736804    -0.21700
C2621       C  0.85223795  0.35188736  0.50182302    -0.09700
C2622       C  0.88330736  0.34442218  0.50500199     0.29200
F2623       F  0.89255786  0.31503276  0.50836216    -0.20200
H2624       H  0.92904662  0.36071280  0.50738813     0.17500
H2625       H  0.82077614  0.38919796  0.99395445     0.17500
F2626       F  0.85741213  0.43476560  0.99290892    -0.20200
C2627       C  0.88227894  0.15592153  0.99987060    -0.21700
C2628       C  0.85198952  0.14754693  0.49803097    -0.09700
C2629       C  0.84499600  0.11636847  0.49422251     0.29200
C2630       C  0.86813071  0.09444255  0.49436665    -0.21700
C2631       C  0.89882300  0.10285542  0.49802306    -0.09700
C2632       C  0.90543014  0.13403207  0.99974757     0.29200
F2633       F  0.93466215  0.14374274  0.00227504    -0.20200
H2634       H  0.88861608  0.17970307  0.00214136     0.17500
H2635       H  0.86184984  0.07071025  0.49150432     0.17500
F2636       F  0.81588868  0.10684254  0.49009626    -0.20200
C2637       C  0.63251208  0.40573776  0.50172135    -0.21700
C2638       C  0.60166130  0.39728832  0.50011941    -0.09700
C2639       C  0.59431488  0.36588871  0.99735557     0.29200
C2640       C  0.61726327  0.34381936  0.99751396    -0.21700
C2641       C  0.64821776  0.35241620  0.50062678    -0.09700
C2642       C  0.65552647  0.38372401  0.50201077     0.29200
F2643       F  0.68484809  0.39332239  0.50376088    -0.20200
H2644       H  0.63902161  0.42955430  0.50285497     0.17500
H2645       H  0.61070405  0.32002257  0.99625274     0.17500
F2646       F  0.56497010  0.35638331  0.99550976    -0.20200
C2647       C  0.59462629  0.13244704  0.50351594    -0.21700
C2648       C  0.60286894  0.10149478  0.50116591    -0.09700
C2649       C  0.63360423  0.09386298  0.99804087     0.29200
C2650       C  0.65571679  0.11677438  0.99835081    -0.21700
C2651       C  0.64784714  0.14791430  0.50166959    -0.09700
C2652       C  0.61669079  0.15538703  0.50382718     0.29200
F2653       F  0.60728993  0.18481407  0.50634105    -0.20200
H2654       H  0.57093225  0.13909176  0.50518201     0.17500
H2655       H  0.67935280  0.11016395  0.99588586     0.17500
F2656       F  0.64289800  0.06448120  0.99468315    -0.20200
C2657       C  0.84368384  0.99918122  0.88276797    -0.21700
C2658       C  0.85196385  0.99953195  0.85176272    -0.09700
C2659       C  0.88351239  0.50152246  0.84428982     0.29200
C2660       C  0.90567081  0.50156306  0.86718631    -0.21700
C2661       C  0.89699657  0.99980737  0.89817488    -0.09700
C2662       C  0.86576956  0.99924290  0.90570933     0.29200
F2663       F  0.85631129  0.99867687  0.93519353    -0.18600
H2664       H  0.81994918  0.99885570  0.88945175     0.17500
H2665       H  0.92936080  0.50286240  0.86046373     0.17500
F2666       F  0.89288439  0.50308612  0.81481396    -0.20200
C2667       C  0.63177561  0.50679359  0.90476438    -0.21700
C2668       C  0.60090464  0.99994322  0.89636695    -0.09700
C2669       C  0.59377410  0.99520372  0.86534667     0.29200
C2670       C  0.61672862  0.99553341  0.84320975    -0.21700
C2671       C  0.64730541  0.00066006  0.85126097    -0.09700
C2672       C  0.65458661  0.50726901  0.88252638     0.29200
F2673       F  0.68334894  0.51448232  0.89121562    -0.20200
H2674       H  0.63797570  0.51188748  0.92812347     0.17500
H2675       H  0.61045759  0.99149745  0.81966246     0.17500
F2676       F  0.56473413  0.98986752  0.85622416    -0.20200
C2677       C  0.65568092  0.49718836  0.61686517    -0.21700
C2678       C  0.64807984  0.00146400  0.64743913    -0.09700
C2679       C  0.61714675  0.00592292  0.65488605     0.29200
C2680       C  0.59492620  0.00552615  0.63211596    -0.21700
C2681       C  0.60281812  0.00082886  0.60138234    -0.09700
C2682       C  0.63349169  0.49686984  0.59405069     0.29200
F2683       F  0.64258869  0.49246626  0.56477452    -0.20200
H2684       H  0.67923301  0.49399562  0.61027490     0.17500
H2685       H  0.57141607  0.00907198  0.63868300     0.17500
F2686       F  0.60815084  0.01093336  0.68409779    -0.20200
C2687       C  0.86757393  0.50300310  0.59427742    -0.21700
C2688       C  0.89856459  0.99838010  0.60224642    -0.09700
C2689       C  0.90563437  0.99309738  0.63317775     0.29200
C2690       C  0.88268381  0.99335643  0.65527251    -0.21700
C2691       C  0.85215707  0.99871774  0.64721570    -0.09700
C2692       C  0.84462196  0.50317468  0.61632739     0.29200
F2693       F  0.81550501  0.50773957  0.60702027    -0.20200
H2694       H  0.86119016  0.50640216  0.57065901     0.17500
H2695       H  0.88893059  0.98919044  0.67880629     0.17500
F2696       F  0.93462265  0.98736808  0.64225357    -0.20200
C2697       C  0.50803273  0.15418961  0.88130661    -0.21700
C2698       C  0.50000312  0.14666635  0.85120057    -0.09700
C2699       C  0.99241536  0.11616825  0.84436799     0.29200
C2700       C  0.99270682  0.09398451  0.86726346    -0.21700
C2701       C  0.50049472  0.10158016  0.89743573    -0.09700
C2702       C  0.50840077  0.13201110  0.90416907     0.29200
F2703       F  0.51698986  0.14043122  0.93269575    -0.20200
H2704       H  0.51436468  0.17733695  0.88723013     0.17500
H2705       H  0.98641395  0.07082652  0.86133907     0.17500
F2706       F  0.98407632  0.10773733  0.81576688    -0.20200
C2707       C  0.01131329  0.36745013  0.90564099    -0.21700
C2708       C  0.50146749  0.39719375  0.89862939    -0.09700
C2709       C  0.49197020  0.40370989  0.86864766     0.29200
C2710       C  0.49212741  0.38090964  0.84643059    -0.21700
C2711       C  0.50168869  0.35110894  0.85344911    -0.09700
C2712       C  0.01157260  0.34462927  0.88334176     0.29200
F2713       F  0.02204542  0.31647484  0.89099112    -0.20200
H2714       H  0.01912908  0.36185506  0.92840159     0.17500
H2715       H  0.48424868  0.38657472  0.82371278     0.17500
F2716       F  0.48174143  0.43190032  0.86082652    -0.20200
C2717       C  0.00538934  0.40577540  0.63297377    -0.21700
C2718       C  0.49791627  0.39811735  0.60273874    -0.09700
C2719       C  0.49014522  0.36763971  0.59600963     0.29200
C2720       C  0.49028215  0.34550803  0.61895583    -0.21700
C2721       C  0.49805545  0.35310058  0.64912488    -0.09700
C2722       C  0.00554149  0.38363527  0.65592132     0.29200
F2723       F  0.01375028  0.39213964  0.68453710    -0.20200
H2724       H  0.01161972  0.42894775  0.63890373     0.17500
H2725       H  0.48410777  0.32232101  0.61301956     0.17500
F2726       F  0.48203114  0.35910816  0.56737527    -0.20200
C2727       C  0.99079324  0.11872673  0.65446224    -0.21700
C2728       C  0.50007353  0.14859762  0.64726745    -0.09700
C2729       C  0.50908594  0.15509965  0.61709468     0.29200
C2730       C  0.50895986  0.13215569  0.59492240    -0.21700
C2731       C  0.49990563  0.10223431  0.60217952    -0.09700
C2732       C  0.99058717  0.09580727  0.63227378     0.29200
F2733       F  0.98066295  0.06756757  0.64027307    -0.20200
H2734       H  0.98333585  0.11306737  0.67733211     0.17500
H2735       H  0.51637293  0.13781775  0.57203919     0.17500
F2736       F  0.51868391  0.18342355  0.60900770    -0.20200
O2737       O  0.50019313  0.54985272  0.08718856    -0.80500
O2738       O  0.49922154  0.54977915  0.41311091    -0.82000
O2739       O  0.55056922  0.58637315  0.00115734    -0.79000
O2740       O  0.95056302  0.58717801  0.99913133    -0.77400
O2741       O  0.91367953  0.55045095  0.99923854    -0.79200
O2742       O  0.58715443  0.54931275  0.00079114    -0.80200
O2743       O  0.50022812  0.58660268  0.44998287    -0.81500
O2744       O  0.50036633  0.58678995  0.05038254    -0.81800
Eu2745     Eu  0.50040307  0.56162951  0.00027597     2.39200
O2746       O  0.96911067  0.53105231  0.46922887    -0.89300
O2747       O  0.53143617  0.53062877  0.03102539    -0.92900
C2748       C  0.50015279  0.57801332  0.07851567     1.01800
C2749       C  0.49966393  0.57792752  0.42185793     1.01600
C2750       C  0.57862267  0.57750930  0.00129956     1.01600
C2751       C  0.92244866  0.57859821  0.99882914     0.99400
H2752       H  0.54360869  0.54337416  0.45601843     0.29200
O2753       O  0.53089603  0.53071174  0.46877695    -1.01700
H2754       H  0.95660921  0.54376965  0.04409685     0.29200
O2755       O  0.96929274  0.53100550  0.03138652    -1.04200
O2756       O  0.50018019  0.94955390  0.41336644    -0.81400
O2757       O  0.49914161  0.94968499  0.08663645    -0.81000
O2758       O  0.58625276  0.49940751  0.44918604    -0.79400
O2759       O  0.91284223  0.50016023  0.45033824    -0.82800
O2760       O  0.91380922  0.49941610  0.05064990    -0.80600
O2761       O  0.58718647  0.49936000  0.04956226    -0.79300
O2762       O  0.54937410  0.91263268  0.99947729    -0.80800
O2763       O  0.94921336  0.91320669  0.00050977    -0.82700
O2764       O  0.58628025  0.94930148  0.99876198    -0.79400
O2765       O  0.91269579  0.95034916  0.00074048    -0.82100
O2766       O  0.54926975  0.49924868  0.41258192    -0.77800
O2767       O  0.55066219  0.50001543  0.08665567    -0.77900
O2768       O  0.95065800  0.49893393  0.08738603    -0.77500
O2769       O  0.94938744  0.49991697  0.41329459    -0.81000
O2770       O  0.50049717  0.91258814  0.45018386    -0.80400
O2771       O  0.49848696  0.91279949  0.04983652    -0.78800
Eu2772     Eu  0.49955231  0.49970881  0.43824258     2.39800
Eu2773     Eu  0.50044862  0.49981978  0.06199444     2.39600
Eu2774     Eu  0.56182901  0.49941215  0.99975177     2.38400
Eu2775     Eu  0.93839959  0.50007513  0.00034810     2.39900
Eu2776     Eu  0.49944832  0.93791937  0.99985029     2.39800
O2777       O  0.96892121  0.96910925  0.03084215    -0.93200
O2778       O  0.53083800  0.96867154  0.46884005    -0.92100
C2779       C  0.50039564  0.92141080  0.42208319     1.02000
C2780       C  0.49843656  0.92152328  0.07794728     1.00700
C2781       C  0.57740036  0.49928843  0.42107275     1.00100
C2782       C  0.92131902  0.50001087  0.42213772     1.02100
C2783       C  0.92257579  0.49888120  0.07876226     1.01000
C2784       C  0.57869425  0.49969142  0.07774104     0.99900
C2785       C  0.57748084  0.92119190  0.99902239     0.99900
C2786       C  0.92117166  0.92212584  0.00078712     1.02500
H2787       H  0.54354334  0.95572083  0.04330419     0.29900
O2788       O  0.53087625  0.96851519  0.03062449    -1.05400
H2789       H  0.95625626  0.95612383  0.45636379     0.32000
O2790       O  0.96900848  0.96884746  0.46899479    -1.07900
O2791       O  0.50029053  0.70039459  0.16304919    -0.80500
O2792       O  0.49892643  0.69914840  0.33656997    -0.82000
O2793       O  0.54993123  0.66352926  0.24908314    -0.79000
O2794       O  0.94982775  0.66322631  0.25102599    -0.77400
O2795       O  0.91294699  0.69997554  0.25138725    -0.79200
O2796       O  0.58663898  0.70039677  0.24987879    -0.80200
O2797       O  0.49941270  0.66249215  0.29952117    -0.81500
O2798       O  0.49975333  0.66332243  0.19971479    -0.81800
Eu2799     Eu  0.49981512  0.68828515  0.24992081     2.39200
O2800       O  0.96873535  0.71882880  0.28109934    -0.89300
O2801       O  0.53074707  0.71957898  0.21941775    -0.92900
C2802       C  0.50010059  0.67219599  0.17161398     1.01800
C2803       C  0.49899965  0.67102787  0.32768019     1.01600
C2804       C  0.57799424  0.67220705  0.24923083     1.01600
C2805       C  0.92172400  0.67184168  0.25154564     0.99400
H2806       H  0.54344093  0.70608437  0.29409336     0.29200
O2807       O  0.53072599  0.71883377  0.28141452    -1.01700
H2808       H  0.95602078  0.70633231  0.20637488     0.29200
O2809       O  0.96868849  0.71908334  0.21906657    -1.04200
O2810       O  0.50038921  0.79953068  0.33756442    -0.81400
O2811       O  0.49843579  0.80051946  0.16353118    -0.81000
O2812       O  0.58587546  0.75136144  0.30132718    -0.79400
O2813       O  0.91282182  0.75029855  0.30042109    -0.82800
O2814       O  0.91287086  0.74995495  0.20031333    -0.80600
O2815       O  0.58670096  0.75083168  0.20103109    -0.79300
O2816       O  0.54884383  0.83765664  0.25056976    -0.80800
O2817       O  0.94906532  0.83696726  0.25003469    -0.82700
O2818       O  0.58582461  0.80098956  0.25085815    -0.79400
O2819       O  0.91260345  0.79988327  0.24962855    -0.82100
O2820       O  0.54897317  0.75045809  0.33799514    -0.77800
O2821       O  0.55017241  0.75072526  0.16397422    -0.77900
O2822       O  0.94954928  0.75022827  0.16338334    -0.77500
O2823       O  0.94957254  0.74990536  0.33720906    -0.81000
O2824       O  0.49964919  0.83665319  0.30090000    -0.80400
O2825       O  0.49838065  0.83720793  0.20055723    -0.78800
Eu2826     Eu  0.49946741  0.74967364  0.31217687     2.39800
Eu2827     Eu  0.49968325  0.75035844  0.18845501     2.39600
Eu2828     Eu  0.56130724  0.75050569  0.25081497     2.38400
Eu2829     Eu  0.93791767  0.74998607  0.25033752     2.39900
Eu2830     Eu  0.49916979  0.81202525  0.25059004     2.39800
O2831       O  0.96854923  0.78115212  0.21939122    -0.93200
O2832       O  0.53014446  0.78120387  0.28164100    -0.92100
C2833       C  0.50031127  0.82770579  0.32896725     1.02000
C2834       C  0.49815709  0.82863588  0.17238796     1.00700
C2835       C  0.57707723  0.75123317  0.32947870     1.00100
C2836       C  0.92151494  0.75026804  0.32856033     1.02100
C2837       C  0.92145212  0.75004338  0.17215072     1.01000
C2838       C  0.57823349  0.75092497  0.17285703     0.99900
C2839       C  0.57697548  0.82913792  0.25067954     0.99900
C2840       C  0.92104133  0.82808336  0.24961755     1.02500
H2841       H  0.54297630  0.79424790  0.20694616     0.29900
O2842       O  0.53038235  0.78137218  0.21960590    -1.05400
H2843       H  0.95570525  0.79368626  0.29432467     0.32000
O2844       O  0.96841674  0.78097983  0.28158762    -1.07900
O2845       O  0.83639373  0.99931378  0.19927478    -0.80500
O2846       O  0.66295695  0.00102376  0.19945881    -0.82000
O2847       O  0.75106869  0.95008805  0.16228397    -0.79000
O2848       O  0.74911457  0.55020926  0.16253012    -0.77400
O2849       O  0.75059081  0.58703113  0.19957333    -0.79200
O2850       O  0.74936960  0.91313712  0.19920691    -0.80200
O2851       O  0.69957528  0.00060204  0.16245322    -0.81500
O2852       O  0.79965739  0.99959053  0.16244413    -0.81800
Eu2853     Eu  0.74963961  0.00024013  0.18745571     2.39200
O2854       O  0.71910189  0.53112216  0.21860363    -0.89300
O2855       O  0.78040556  0.96930536  0.21847945    -0.92900
C2856       C  0.82772350  0.99919359  0.17112756     1.01800
C2857       C  0.67151512  0.00094948  0.17128624     1.01600
C2858       C  0.75048293  0.92196913  0.17112399     1.01600
C2859       C  0.74988518  0.57828817  0.17146286     0.99400
H2860       H  0.70582405  0.95660248  0.20554094     0.29200
O2861       O  0.71854038  0.96926904  0.21827032    -1.01700
H2862       H  0.79374756  0.54401601  0.20572239     0.29200
O2863       O  0.78100484  0.53128335  0.21838311    -1.04200
O2864       O  0.66277788  0.00003530  0.29959262    -0.81400
O2865       O  0.83658451  0.99986413  0.29936535    -0.81000
O2866       O  0.69933185  0.91354955  0.24958578    -0.79400
O2867       O  0.70030660  0.58742074  0.24907510    -0.82800
O2868       O  0.79947693  0.58746087  0.25064858    -0.80600
O2869       O  0.79964131  0.91333175  0.24867009    -0.79300
O2870       O  0.74859617  0.94986515  0.33642360    -0.80800
O2871       O  0.75093430  0.55012452  0.33673462    -0.82700
O2872       O  0.74865604  0.91311295  0.29947081    -0.79400
O2873       O  0.75070444  0.58688122  0.29979769    -0.82100
O2874       O  0.66261511  0.95047131  0.24974395    -0.77800
O2875       O  0.83627594  0.95027911  0.24886852    -0.77900
O2876       O  0.83631323  0.55069165  0.25058366    -0.77500
O2877       O  0.66347057  0.55070053  0.24906866    -0.81000
O2878       O  0.69963976  0.00049963  0.33639097    -0.80400
O2879       O  0.80003724  0.99952014  0.33642237    -0.78800
Eu2880     Eu  0.68798131  0.00046800  0.24950932     2.39800
Eu2881     Eu  0.81132433  0.00026293  0.24937588     2.39600
Eu2882     Eu  0.74946329  0.93831504  0.24931836     2.38400
Eu2883     Eu  0.74997740  0.56191652  0.24965084     2.39900
Eu2884     Eu  0.74979359  0.00010818  0.31142229     2.39800
O2885       O  0.78077396  0.53109124  0.28075721    -0.93200
O2886       O  0.71875741  0.96933997  0.28042003    -0.92100
C2887       C  0.67154949  0.00029291  0.32771265     1.02000
C2888       C  0.82812278  0.99955363  0.32757410     1.00700
C2889       C  0.67125793  0.92227005  0.24971391     1.00100
C2890       C  0.67222189  0.57886724  0.24889287     1.02100
C2891       C  0.82754503  0.57885762  0.25095004     1.01000
C2892       C  0.82771589  0.92212566  0.24864111     0.99900
C2893       C  0.74834978  0.92170239  0.32765731     0.99900
C2894       C  0.75108059  0.57828177  0.32795920     1.02500
H2895       H  0.79320321  0.95619503  0.29298744     0.29900
O2896       O  0.78055946  0.96904254  0.28034149    -1.05400
H2897       H  0.70629841  0.54406393  0.29352501     0.32000
O2898       O  0.71895523  0.53125396  0.28083537    -1.07900
O2899       O  0.69978996  0.66292166  0.50111074    -0.80500
O2900       O  0.70048600  0.83698035  0.50024001    -0.82000
O2901       O  0.66309027  0.75070417  0.05064323    -0.79000
O2902       O  0.66286779  0.75107450  0.45079817    -0.77400
O2903       O  0.69948488  0.75108254  0.41382967    -0.79200
O2904       O  0.69974841  0.75031076  0.08753816    -0.80200
O2905       O  0.66363063  0.80025834  0.49995850    -0.81500
O2906       O  0.66323390  0.69999279  0.50169507    -0.81800
Eu2907     Eu  0.68840328  0.75009294  0.50074573     2.39200
O2908       O  0.71925031  0.78107384  0.46990322    -0.89300
O2909       O  0.71878429  0.71906255  0.03164653    -0.92900
C2910       C  0.67174848  0.67176925  0.50167343     1.01800
C2911       C  0.67239624  0.82838138  0.49983211     1.01600
C2912       C  0.67165271  0.75067937  0.07879229     1.01600
C2913       C  0.67143585  0.75142184  0.42259156     0.99400
H2914       H  0.70638800  0.79401885  0.04415282     0.29200
O2915       O  0.71901251  0.78119117  0.03145144    -1.01700
H2916       H  0.70586855  0.70620137  0.45673558     0.29200
O2917       O  0.71867206  0.71885522  0.46938890    -1.04200
O2918       O  0.80054989  0.83672691  0.50069768    -0.81400
O2919       O  0.79964676  0.66260912  0.49957212    -0.81000
O2920       O  0.74978239  0.80029383  0.08728151    -0.79400
O2921       O  0.74859563  0.80048273  0.41376230    -0.82800
O2922       O  0.75036123  0.69970549  0.41362936    -0.80600
O2923       O  0.75004688  0.69994396  0.08763319    -0.79300
O2924       O  0.83674430  0.74956212  0.04975107    -0.80800
O2925       O  0.83614193  0.75013279  0.44960087    -0.82700
O2926       O  0.80024036  0.75024190  0.08686324    -0.79400
O2927       O  0.79921992  0.75058741  0.41297622    -0.82100
O2928       O  0.75122767  0.83719992  0.05028914    -0.77800
O2929       O  0.74857916  0.66305456  0.05066284    -0.77900
O2930       O  0.75034165  0.66287912  0.45051043    -0.77500
O2931       O  0.74938656  0.83729650  0.45065113    -0.81000
O2932       O  0.83706233  0.79960197  0.50071170    -0.80400
O2933       O  0.83637395  0.69945908  0.49871725    -0.78800
Eu2934     Eu  0.75044926  0.81186784  0.50065105     2.39800
Eu2935     Eu  0.74973523  0.68801448  0.50046653     2.39600
Eu2936     Eu  0.74989700  0.75004050  0.06233917     2.38400
Eu2937     Eu  0.74957791  0.75007423  0.43855557     2.39900
Eu2938     Eu  0.81162062  0.74967744  0.49994399     2.39800
O2939       O  0.78048606  0.71885152  0.46922521    -0.93200
O2940       O  0.78077265  0.78080472  0.03111793    -0.92100
C2941       C  0.82858614  0.82783112  0.50087992     1.02000
C2942       C  0.82771507  0.67129747  0.49877870     1.00700
C2943       C  0.75055210  0.82839352  0.07839320     1.00100
C2944       C  0.74862876  0.82866690  0.42249297     1.02100
C2945       C  0.75062787  0.67151620  0.42237372     1.01000
C2946       C  0.74914127  0.67184580  0.07875969     0.99900
C2947       C  0.82828657  0.74989411  0.07795114     0.99900
C2948       C  0.82732043  0.75057043  0.42150585     1.02500
H2949       H  0.79344475  0.70598683  0.04392365     0.29900
O2950       O  0.78070841  0.71879972  0.03133010    -1.05400
H2951       H  0.79353520  0.79379885  0.45640907     0.32000
O2952       O  0.78092518  0.78101475  0.46914662    -1.07900
C2953       C  0.73283765  0.59820075  0.12100191    -0.21700
C2954       C  0.74991645  0.60220105  0.14775999    -0.09700
C2955       C  0.76679968  0.62920237  0.15162890     0.29200
C2956       C  0.76615795  0.65192745  0.12924527    -0.21700
C2957       C  0.74904175  0.64795010  0.10249980    -0.09700
C2958       C  0.73230100  0.62086404  0.09855699     0.29200
F2959       F  0.71471131  0.61668414  0.07344743    -0.20200
H2960       H  0.71947687  0.57768516  0.11769768     0.17500
H2961       H  0.77957413  0.67241133  0.13252151     0.17500
F2962       F  0.78475287  0.63315409  0.17651913    -0.20200
C2963       C  0.76834166  0.87862279  0.09844406    -0.21700
C2964       C  0.75052904  0.85226846  0.10214714    -0.09700
C2965       C  0.73271165  0.84904209  0.12862192     0.29200
C2966       C  0.73301073  0.87171213  0.15106462    -0.21700
C2967       C  0.75080601  0.89807407  0.14737782    -0.09700
C2968       C  0.76862118  0.90132139  0.12089151     0.29200
F2969       F  0.78701704  0.92593961  0.11716376    -0.20200
H2970       H  0.78244617  0.88139548  0.07834782     0.17500
H2971       H  0.71885458  0.86894108  0.17112540     0.17500
F2972       F  0.71420769  0.82449687  0.13230303    -0.20200
C2973       C  0.74412516  0.90589704  0.38254255    -0.21700
C2974       C  0.74783694  0.89767405  0.35172201    -0.09700
C2975       C  0.75121054  0.86646973  0.34449587     0.29200
C2976       C  0.75133509  0.84441005  0.36755665    -0.21700
C2977       C  0.74795977  0.85265020  0.39839689    -0.09700
C2978       C  0.74405771  0.88380374  0.40559820     0.29200
F2979       F  0.73986664  0.89312805  0.43483860    -0.20200
H2980       H  0.74114415  0.92958793  0.38896963     0.17500
H2981       H  0.75431845  0.82072444  0.36111235     0.17500
F2982       F  0.75473772  0.85703742  0.31520795    -0.20200
C2983       C  0.75076035  0.65577658  0.36741013    -0.21700
C2984       C  0.75119802  0.64746534  0.39839711    -0.09700
C2985       C  0.75208274  0.61613537  0.40589241     0.29200
C2986       C  0.75223093  0.59400228  0.38293199    -0.21700
C2987       C  0.75150188  0.60231997  0.35194480    -0.09700
C2988       C  0.75091458  0.63364392  0.34445547     0.29200
F2989       F  0.75032006  0.64316052  0.31498922    -0.20200
H2990       H  0.75015996  0.67958048  0.36074570     0.17500
H2991       H  0.75280313  0.57019500  0.38959251     0.17500
F2992       F  0.75272216  0.60660600  0.43535865    -0.20200
C2993       C  0.86686697  0.65629330  0.25114872    -0.21700
C2994       C  0.89777008  0.64789524  0.25211139    -0.09700
C2995       C  0.90520203  0.61659375  0.25334546     0.29200
C2996       C  0.88229206  0.59451504  0.25302897    -0.21700
C2997       C  0.85141340  0.60288360  0.25167806    -0.09700
C2998       C  0.84394090  0.63421726  0.25099610     0.29200
F2999       F  0.81455293  0.64379327  0.25002619    -0.20200
H3000       H  0.86025228  0.68010790  0.25034345     0.17500
H3001       H  0.88890841  0.57070376  0.25383992     0.17500
F3002       F  0.93456529  0.60705294  0.25488733    -0.20200
C3003       C  0.90512489  0.88299972  0.24905072    -0.21700
C3004       C  0.89696928  0.85196240  0.24916357    -0.09700
C3005       C  0.86577906  0.84431535  0.24886994     0.29200
C3006       C  0.84360239  0.86718793  0.24857870    -0.21700
C3007       C  0.85175964  0.89822129  0.24856948    -0.09700
C3008       C  0.88295657  0.90586870  0.24874827     0.29200
F3009       F  0.89232197  0.93540116  0.24870685    -0.20200
H3010       H  0.92882781  0.88977131  0.24923677     0.17500
H3011       H  0.81989623  0.86042890  0.24844159     0.17500
F3012       F  0.85643631  0.81478042  0.24893131    -0.20200
C3013       C  0.63288776  0.65646799  0.24804246    -0.21700
C3014       C  0.60197199  0.64817791  0.24878650    -0.09700
C3015       C  0.59450872  0.61685058  0.24925171     0.29200
C3016       C  0.61740568  0.59469544  0.24920068    -0.21700
C3017       C  0.64831772  0.60296874  0.24862292    -0.09700
C3018       C  0.65579876  0.63429588  0.24792553     0.29200
F3019       F  0.68520228  0.64377372  0.24712845    -0.20200
H3020       H  0.63951927  0.68027357  0.24756338     0.17500
H3021       H  0.61075076  0.57089756  0.24969912     0.17500
F3022       F  0.56511584  0.60733917  0.24988812    -0.20200
C3023       C  0.63171645  0.84492509  0.24803735    -0.21700
C3024       C  0.60086654  0.85321704  0.25039323    -0.09700
C3025       C  0.59345684  0.88451252  0.25233758     0.29200
C3026       C  0.61638529  0.90663361  0.25202615    -0.21700
C3027       C  0.64724758  0.89831141  0.24979950    -0.09700
C3028       C  0.65462633  0.86702587  0.24772317     0.29200
F3029       F  0.68394386  0.85751726  0.24526152    -0.20200
H3030       H  0.63830892  0.82115259  0.24634108     0.17500
H3031       H  0.60982101  0.93041728  0.25368343     0.17500
F3032       F  0.56412231  0.89398610  0.25474927    -0.20200
C3033       C  0.90567234  0.75074243  0.11717920    -0.21700
C3034       C  0.89745189  0.74983182  0.14818823    -0.09700
C3035       C  0.86624131  0.74871634  0.15573899     0.29200
C3036       C  0.84413515  0.74869851  0.13283938    -0.21700
C3037       C  0.85234367  0.74977314  0.10184022    -0.09700
C3038       C  0.88355144  0.75071685  0.09426979     0.29200
F3039       F  0.89295382  0.75176188  0.06478063    -0.20200
H3040       H  0.92938718  0.75157188  0.11047087     0.17500
H3041       H  0.82042563  0.74782147  0.13956227     0.17500
F3042       F  0.85679920  0.74760075  0.18521237    -0.20200
C3043       C  0.65570072  0.75309367  0.13370384    -0.21700
C3044       C  0.64759464  0.75117536  0.10272817    -0.09700
C3045       C  0.61640978  0.74974284  0.09515214     0.29200
C3046       C  0.59423576  0.74975178  0.11801055    -0.21700
C3047       C  0.60233806  0.75132309  0.14899056    -0.09700
C3048       C  0.63349957  0.75324045  0.15657462     0.29200
F3049       F  0.64277661  0.75534850  0.18603534    -0.20200
H3050       H  0.67937975  0.75451873  0.14040558     0.17500
H3051       H  0.57056239  0.74838775  0.11127551     0.17500
F3052       F  0.60705845  0.74814787  0.06568842    -0.20200
C3053       C  0.61646625  0.75242439  0.40700609    -0.21700
C3054       C  0.64739385  0.75205332  0.39865284    -0.09700
C3055       C  0.65481759  0.75206048  0.36732841     0.29200
C3056       C  0.63189700  0.75192874  0.34524662    -0.21700
C3057       C  0.60097590  0.75189246  0.35356630    -0.09700
C3058       C  0.59351971  0.75238995  0.38489473     0.29200
F3059       F  0.56411358  0.75278764  0.39442716    -0.20200
H3060       H  0.60985667  0.75262746  0.43081215     0.17500
H3061       H  0.63855026  0.75172056  0.32145473     0.17500
F3062       F  0.68420549  0.75204238  0.35774107    -0.20200
C3063       C  0.86672813  0.75283365  0.34418626    -0.21700
C3064       C  0.89757874  0.75084502  0.35251633    -0.09700
C3065       C  0.90500851  0.74955915  0.38378574     0.29200
C3066       C  0.88208669  0.74957039  0.40584894    -0.21700
C3067       C  0.85121919  0.75110455  0.39751622    -0.09700
C3068       C  0.84380368  0.75311305  0.36627948     0.29200
F3069       F  0.81447264  0.75547559  0.35683474    -0.20200
H3070       H  0.86016201  0.75424288  0.32041791     0.17500
H3071       H  0.88868731  0.74826497  0.42961333     0.17500
F3072       F  0.93437243  0.74818152  0.39331727    -0.20200
C3073       C  0.90511565  0.86743513  0.00546658    -0.21700
C3074       C  0.89713269  0.89823185  0.00106639    -0.09700
C3075       C  0.86671665  0.90549357  0.49661989     0.29200
C3076       C  0.84459471  0.88258015  0.49674044    -0.21700
C3077       C  0.85204215  0.85188745  0.00112140    -0.09700
C3078       C  0.88298465  0.84452848  0.00554756     0.29200
F3079       F  0.89206509  0.81526635  0.01022589    -0.20200
H3080       H  0.92863823  0.86091991  0.00900337     0.17500
H3081       H  0.82108170  0.88908655  0.49312771     0.17500
F3082       F  0.85761021  0.93473491  0.49184850    -0.20200
C3083       C  0.88259329  0.65595175  0.50095845    -0.21700
C3084       C  0.85166725  0.64735338  0.99794572    -0.09700
C3085       C  0.84489871  0.61645887  0.99199458     0.29200
C3086       C  0.86800130  0.59446304  0.99224367    -0.21700
C3087       C  0.89843956  0.60258597  0.99806584    -0.09700
C3088       C  0.90572374  0.63404246  0.50086448     0.29200
F3089       F  0.93494643  0.64369406  0.50373776    -0.20200
H3090       H  0.88892459  0.67971047  0.50347634     0.17500
H3091       H  0.86194642  0.57094001  0.98766529     0.17500
F3092       F  0.81608690  0.60735615  0.98550145    -0.20200
C3093       C  0.63223092  0.90560351  0.00172069    -0.21700
C3094       C  0.60144069  0.89723515  0.99904302    -0.09700
C3095       C  0.59457171  0.86594373  0.49758748     0.29200
C3096       C  0.61756231  0.84390314  0.49788213    -0.21700
C3097       C  0.64791429  0.85231320  0.99967921    -0.09700
C3098       C  0.65520575  0.88356277  0.00206782     0.29200
F3099       F  0.68446347  0.89306643  0.00499323    -0.20200
H3100       H  0.63871136  0.92936847  0.00375322     0.17500
H3101       H  0.61101949  0.82008258  0.49706567     0.17500
F3102       F  0.56522668  0.85636558  0.49617488    -0.20200
C3103       C  0.59439487  0.63241293  0.99951304    -0.21700
C3104       C  0.60258991  0.60145604  0.00191225    -0.09700
C3105       C  0.63378448  0.59394924  0.49871596     0.29200
C3106       C  0.65590858  0.61685933  0.49896277    -0.21700
C3107       C  0.64759190  0.64785744  0.00207382    -0.09700
C3108       C  0.61646399  0.65534730  0.99961705     0.29200
F3109       F  0.60710808  0.68477880  0.99700224    -0.20200
H3110       H  0.57074457  0.63905690  0.99733465     0.17500
H3111       H  0.67953963  0.61023426  0.49649285     0.17500
F3112       F  0.64307340  0.56455774  0.49543999    -0.20200
C3113       C  0.84391419  0.50058337  0.38284020    -0.21700
C3114       C  0.85212334  0.49961684  0.35182979    -0.09700
C3115       C  0.88344284  0.00101337  0.34389768     0.29200
C3116       C  0.90565021  0.00115588  0.36676455    -0.21700
C3117       C  0.89726304  0.49979054  0.39819995    -0.09700
C3118       C  0.86604077  0.50059374  0.40575309     0.29200
F3119       F  0.85661988  0.50140316  0.43524223    -0.18600
H3120       H  0.82019734  0.50137670  0.38955174     0.17500
H3121       H  0.92931027  0.00281206  0.36001701     0.17500
F3122       F  0.89273717  0.00283827  0.31441254    -0.20200
C3123       C  0.63106693  0.01021263  0.40377122    -0.21700
C3124       C  0.60127492  0.49949867  0.39697726    -0.09700
C3125       C  0.59424960  0.49360843  0.36613914     0.29200
C3126       C  0.61714214  0.49398952  0.34394535    -0.21700
C3127       C  0.64756765  0.50019281  0.35178209    -0.09700
C3128       C  0.65375895  0.01083038  0.38139501     0.29200
F3129       F  0.68141005  0.02251172  0.38875740    -0.20200
H3130       H  0.63640177  0.01875274  0.42633205     0.17500
H3131       H  0.61096519  0.48910025  0.32053486     0.17500
F3132       F  0.56538733  0.48700413  0.35728792    -0.20200
C3133       C  0.65552275  0.99640874  0.11662766    -0.21700
C3134       C  0.64786442  0.50030859  0.14771250    -0.09700
C3135       C  0.61694695  0.50493419  0.15508996     0.29200
C3136       C  0.59478439  0.50462417  0.13227321    -0.21700
C3137       C  0.60270910  0.49972997  0.10157816    -0.09700
C3138       C  0.63336741  0.99598797  0.09377576     0.29200
F3139       F  0.64242985  0.99093678  0.06459377    -0.20200
H3140       H  0.67904881  0.99284549  0.11013262     0.17500
H3141       H  0.57129751  0.50844629  0.13876904     0.17500
F3142       F  0.60791956  0.51008882  0.18426647    -0.20200
C3143       C  0.86760904  0.00245955  0.09411325    -0.21700
C3144       C  0.89859458  0.49844467  0.10266181    -0.09700
C3145       C  0.90557721  0.49284647  0.13355458     0.29200
C3146       C  0.88258301  0.49309371  0.15560872    -0.21700
C3147       C  0.85211661  0.49881110  0.14754160    -0.09700
C3148       C  0.84460329  0.00255212  0.11610447     0.29200
F3149       F  0.81548343  0.00689462  0.10670712    -0.20200
H3150       H  0.86124490  0.00574706  0.07047450     0.17500
H3151       H  0.88874257  0.48864360  0.17911420     0.17500
F3152       F  0.93450985  0.48681698  0.14261930    -0.20200
C3153       C  0.50414217  0.65499301  0.38217082    -0.21700
C3154       C  0.49888787  0.64699613  0.35156886    -0.09700
C3155       C  0.99380824  0.61603834  0.34436459     0.29200
C3156       C  0.99417116  0.59387064  0.36728197    -0.21700
C3157       C  0.49948870  0.60188328  0.39788755    -0.09700
C3158       C  0.50450106  0.63284999  0.40507011     0.29200
F3159       F  0.51014802  0.64193529  0.43412624    -0.20200
H3160       H  0.50829656  0.67852076  0.38851735     0.17500
H3161       H  0.99004291  0.57033264  0.36095409     0.17500
F3162       F  0.98810323  0.60701775  0.31529601    -0.20200
C3163       C  0.01071967  0.86790999  0.40502715    -0.21700
C3164       C  0.50048550  0.89754223  0.39816462    -0.09700
C3165       C  0.49038606  0.90395379  0.36835247     0.29200
C3166       C  0.49059043  0.88118758  0.34607818    -0.21700
C3167       C  0.50072069  0.85153476  0.35292891    -0.09700
C3168       C  0.01095703  0.84512492  0.38271340     0.29200
F3169       F  0.02182303  0.81708142  0.39022165    -0.20200
H3170       H  0.01892589  0.86239434  0.42766841     0.17500
H3171       H  0.48234267  0.88674237  0.32346403     0.17500
F3172       F  0.47956892  0.93199447  0.36077850    -0.20200
C3173       C  0.00318716  0.90564162  0.13257685    -0.21700
C3174       C  0.49775056  0.89764201  0.10199687    -0.09700
C3175       C  0.49194803  0.86678087  0.09493664     0.29200
C3176       C  0.49195021  0.84468398  0.11792452    -0.21700
C3177       C  0.49769290  0.85264868  0.14846305    -0.09700
C3178       C  0.00323805  0.88354286  0.15554925     0.29200
F3179       F  0.00934829  0.89253529  0.18453959    -0.20200
H3180       H  0.00783980  0.92910129  0.13882406     0.17500
H3181       H  0.48736052  0.82120792  0.11168684     0.17500
F3182       F  0.48604279  0.85776522  0.06590641    -0.20200
C3183       C  0.99209178  0.61809583  0.15506874    -0.21700
C3184       C  0.50005576  0.64827843  0.14760056    -0.09700
C3185       C  0.50779331  0.65510140  0.11713738     0.29200
C3186       C  0.50763965  0.63220309  0.09494342    -0.21700
C3187       C  0.49985368  0.60199246  0.10244842    -0.09700
C3188       C  0.99188581  0.59520749  0.13286144     0.29200
F3189       F  0.98333297  0.56661826  0.14121049    -0.20200
H3190       H  0.98567804  0.61213969  0.17817837     0.17500
H3191       H  0.51400662  0.63816547  0.07182290     0.17500
F3192       F  0.51609249  0.68374027  0.10871893    -0.20200
O3193       O  0.49948328  0.55005455  0.58711258    -0.80500
O3194       O  0.50001313  0.54959067  0.91327063    -0.82000
O3195       O  0.55056344  0.58647580  0.50093742    -0.79000
O3196       O  0.95068278  0.58739501  0.49905791    -0.77400
O3197       O  0.91380630  0.55068492  0.49921082    -0.79200
O3198       O  0.58705772  0.54933801  0.50038412    -0.80200
O3199       O  0.50082032  0.58643740  0.95010603    -0.81500
O3200       O  0.50000521  0.58690057  0.55019134    -0.81800
Eu3201     Eu  0.50035215  0.56173312  0.50010543     2.39200
O3202       O  0.96926698  0.53090793  0.96935068    -0.89300
O3203       O  0.53126129  0.53074198  0.53093966    -0.92900
C3204       C  0.49948644  0.57818317  0.57833516     1.01800
C3205       C  0.50051787  0.57774242  0.92197976     1.01600
C3206       C  0.57860543  0.57755723  0.50092348     1.01600
C3207       C  0.92258589  0.57881973  0.49880259     0.99400
H3208       H  0.54375149  0.54327983  0.95630754     0.29200
O3209       O  0.53101999  0.53059485  0.96902198    -1.01700
H3210       H  0.95644506  0.54395573  0.54387597     0.29200
O3211       O  0.96915178  0.53117467  0.53120781    -1.04200
O3212       O  0.49978624  0.94937541  0.91330788    -0.81400
O3213       O  0.49967244  0.94984297  0.58699851    -0.81000
O3214       O  0.58651629  0.49977881  0.94931117    -0.79400
O3215       O  0.91311730  0.50014584  0.95035174    -0.82800
O3216       O  0.91345821  0.49971867  0.55043069    -0.80600
O3217       O  0.58687116  0.49994096  0.54951454    -0.79300
O3218       O  0.54984929  0.91264745  0.49943559    -0.80800
O3219       O  0.94975674  0.91317727  0.50063839    -0.82700
O3220       O  0.58672442  0.94933982  0.49893646    -0.79400
O3221       O  0.91321049  0.95029236  0.50054632    -0.82100
O3222       O  0.54948303  0.49947988  0.91276493    -0.77800
O3223       O  0.55038431  0.50055212  0.58664287    -0.77900
O3224       O  0.95029928  0.49930382  0.58715433    -0.77500
O3225       O  0.94968019  0.49995622  0.91331975    -0.81000
O3226       O  0.49999757  0.91244380  0.95010673    -0.80400
O3227       O  0.49896641  0.91292664  0.55017641    -0.78800
Eu3228     Eu  0.49979231  0.49957554  0.93840510     2.39800
Eu3229     Eu  0.50017770  0.50002262  0.56193050     2.39600
Eu3230     Eu  0.56159769  0.49950454  0.49963829     2.38400
Eu3231     Eu  0.93824593  0.50024100  0.50024387     2.39900
Eu3232     Eu  0.49995735  0.93796568  0.50006833     2.39800
O3233       O  0.96937478  0.96924013  0.53093147    -0.93200
O3234       O  0.53035359  0.96851322  0.96852714    -0.92100
C3235       C  0.50002176  0.92122498  0.92200550     1.02000
C3236       C  0.49895718  0.92168536  0.57829080     1.00700
C3237       C  0.57761802  0.49971782  0.92121245     1.00100
C3238       C  0.92160332  0.50007441  0.92214723     1.02100
C3239       C  0.92221500  0.49926954  0.57854354     1.01000
C3240       C  0.57841543  0.50038045  0.57770741     0.99900
C3241       C  0.57794948  0.92121715  0.49898416     0.99900
C3242       C  0.92170589  0.92207008  0.50072738     1.02500
H3243       H  0.54397926  0.95579960  0.54364641     0.29900
O3244       O  0.53130965  0.96858422  0.53095801    -1.05400
H3245       H  0.95557698  0.95606885  0.95629406     0.32000
O3246       O  0.96837101  0.96877853  0.96889943    -1.07900
O3247       O  0.50044357  0.70041694  0.66287597    -0.80500
O3248       O  0.49972611  0.69874342  0.83638030    -0.82000
O3249       O  0.55029037  0.66336031  0.74848360    -0.79000
O3250       O  0.95018563  0.66296333  0.75135169    -0.77400
O3251       O  0.91335704  0.69977954  0.75143405    -0.79200
O3252       O  0.58692918  0.70031589  0.74973149    -0.80200
O3253       O  0.50059137  0.66214964  0.79930988    -0.81500
O3254       O  0.49952986  0.66323770  0.69945461    -0.81800
Eu3255     Eu  0.50016351  0.68805575  0.74973545     2.39200
O3256       O  0.96895259  0.71846676  0.78095001    -0.89300
O3257       O  0.53117862  0.71942754  0.71934630    -0.92900
C3258       C  0.49990155  0.67220630  0.67138412     1.01800
C3259       C  0.50025806  0.67063250  0.82748868     1.01600
C3260       C  0.57832143  0.67213887  0.74874455     1.01600
C3261       C  0.92209328  0.67162975  0.75187100     0.99400
H3262       H  0.54375844  0.70586657  0.79387747     0.29200
O3263       O  0.53100752  0.71862218  0.78124309    -1.01700
H3264       H  0.95643767  0.70629650  0.70622374     0.29200
O3265       O  0.96913813  0.71900451  0.71892481    -1.04200
O3266       O  0.50032379  0.79899048  0.83764618    -0.81400
O3267       O  0.49909617  0.80053765  0.66350832    -0.81000
O3268       O  0.58608729  0.75095304  0.80129881    -0.79400
O3269       O  0.91299818  0.75021133  0.80023564    -0.82800
O3270       O  0.91351160  0.74990264  0.70004181    -0.80600
O3271       O  0.58722091  0.75072818  0.70114366    -0.79300
O3272       O  0.54938090  0.83747072  0.75094535    -0.80800
O3273       O  0.94968535  0.83687862  0.75010597    -0.82700
O3274       O  0.58633657  0.80079512  0.75126704    -0.79400
O3275       O  0.91314918  0.79985638  0.74962311    -0.82100
O3276       O  0.54909301  0.75004664  0.83787270    -0.77800
O3277       O  0.55075444  0.75050547  0.66403295    -0.77900
O3278       O  0.95022837  0.75035182  0.66314771    -0.77500
O3279       O  0.94967525  0.74950456  0.83708926    -0.81000
O3280       O  0.50008055  0.83613529  0.80103416    -0.80400
O3281       O  0.49924857  0.83717644  0.70062249    -0.78800
Eu3282     Eu  0.49964620  0.74928123  0.81206801     2.39800
Eu3283     Eu  0.50022238  0.75031826  0.68839196     2.39600
Eu3284     Eu  0.56166427  0.75036530  0.75081190     2.38400
Eu3285     Eu  0.93830109  0.74983145  0.75019758     2.39900
Eu3286     Eu  0.49970086  0.81182549  0.75060687     2.39800
O3287       O  0.96905393  0.78102804  0.71936217    -0.93200
O3288       O  0.53046988  0.78090566  0.78172838    -0.92100
C3289       C  0.50042038  0.82717289  0.82910033     1.02000
C3290       C  0.49898657  0.82863455  0.67243809     1.00700
C3291       C  0.57720406  0.75076678  0.82940826     1.00100
C3292       C  0.92162188  0.75007594  0.82840476     1.02100
C3293       C  0.92213178  0.75008159  0.67188909     1.01000
C3294       C  0.57879705  0.75073268  0.67296244     0.99900
C3295       C  0.57751248  0.82895345  0.75116904     0.99900
C3296       C  0.92164849  0.82804756  0.74971594     1.02500
H3297       H  0.54358952  0.79418952  0.70696724     0.29900
O3298       O  0.53093766  0.78130358  0.71955924    -1.05400
H3299       H  0.95609219  0.79341326  0.79420260     0.32000
O3300       O  0.96881746  0.78072952  0.78145849    -1.07900
O3301       O  0.83687919  0.99935158  0.69932497    -0.80500
O3302       O  0.66349133  0.00121512  0.69945257    -0.82000
O3303       O  0.75183492  0.94968775  0.66265228    -0.79000
O3304       O  0.74905900  0.55026910  0.66268562    -0.77400
O3305       O  0.75070517  0.58710579  0.69970109    -0.79200
O3306       O  0.75019827  0.91281766  0.69966375    -0.80200
O3307       O  0.70014436  0.00058557  0.66249141    -0.81500
O3308       O  0.80014127  0.99956360  0.66248795    -0.81800
Eu3309     Eu  0.75019759  0.00002639  0.68754770     2.39200
O3310       O  0.71911731  0.53130358  0.71872954    -0.89300
O3311       O  0.78097940  0.96916753  0.71864917    -0.92900
C3312       C  0.82819940  0.99922509  0.67116885     1.01800
C3313       C  0.67207812  0.00114972  0.67130778     1.01600
C3314       C  0.75134474  0.92158372  0.67157457     1.01600
C3315       C  0.74991161  0.57834504  0.67159830     0.99400
H3316       H  0.70642713  0.95640617  0.70566525     0.29200
O3317       O  0.71911133  0.96910404  0.71839708    -1.01700
H3318       H  0.79375550  0.54402923  0.70580655     0.29200
O3319       O  0.78099710  0.53129797  0.71845269    -1.04200
O3320       O  0.66280975  0.00037609  0.79921835    -0.81400
O3321       O  0.83662332  0.00009352  0.79962268    -0.81000
O3322       O  0.69988333  0.91349344  0.74995972    -0.79400
O3323       O  0.70051281  0.58758345  0.74917582    -0.82800
O3324       O  0.79971328  0.58739066  0.75105484    -0.80600
O3325       O  0.80042992  0.91350413  0.74905270    -0.79300
O3326       O  0.74822571  0.94970719  0.83668375    -0.80800
O3327       O  0.75084146  0.55017559  0.83681614    -0.82700
O3328       O  0.74971354  0.91289833  0.79969236    -0.79400
O3329       O  0.75066418  0.58696470  0.79990594    -0.82100
O3330       O  0.66312477  0.95038747  0.74984261    -0.77800
O3331       O  0.83707174  0.95044575  0.74918786    -0.77900
O3332       O  0.83649806  0.55056740  0.75101122    -0.77500
O3333       O  0.66358161  0.55092697  0.74900338    -0.81000
O3334       O  0.69947984  0.00048923  0.83612030    -0.80400
O3335       O  0.79990977  0.99947990  0.83652612    -0.78800
Eu3336     Eu  0.68842289  0.00044726  0.74943151     2.39800
Eu3337     Eu  0.81177785  0.00024658  0.74949682     2.39600
Eu3338     Eu  0.75006497  0.93821484  0.74956949     2.38400
Eu3339     Eu  0.75011006  0.56199518  0.74977309     2.39900
Eu3340     Eu  0.74983328  0.99995331  0.81148397     2.39800
O3341       O  0.78083474  0.53109432  0.78084755    -0.93200
O3342       O  0.71901654  0.96917039  0.78040112    -0.92100
C3343       C  0.67140368  0.00051407  0.82738224     1.02000
C3344       C  0.82800507  0.99971702  0.82777463     1.00700
C3345       C  0.67179393  0.92218840  0.75003473     1.00100
C3346       C  0.67242487  0.57905106  0.74891039     1.02100
C3347       C  0.82777294  0.57874786  0.75147111     1.01000
C3348       C  0.82851169  0.92229388  0.74901700     0.99900
C3349       C  0.74876275  0.92156426  0.82784717     0.99900
C3350       C  0.75098066  0.57833391  0.82805636     1.02500
H3351       H  0.79360449  0.95626972  0.79326474     0.29900
O3352       O  0.78097457  0.96907082  0.78055845    -1.05400
H3353       H  0.70638610  0.54418668  0.79356139     0.32000
O3354       O  0.71901759  0.53134267  0.78088171    -1.07900
O3355       O  0.69959836  0.66294273  0.00128017    -0.80500
O3356       O  0.69996912  0.83701174  0.00024326    -0.82000
O3357       O  0.66363384  0.75055177  0.55087474    -0.79000
O3358       O  0.66265980  0.75086572  0.95069689    -0.77400
O3359       O  0.69934900  0.75084610  0.91379322    -0.79200
O3360       O  0.70032846  0.75005467  0.58774207    -0.80200
O3361       O  0.66316329  0.80024230  0.99998883    -0.81500
O3362       O  0.66304265  0.70001825  0.00154612    -0.81800
Eu3363     Eu  0.68808571  0.75012666  0.00059651     2.39200
O3364       O  0.71884342  0.78103868  0.96952776    -0.89300
O3365       O  0.71916125  0.71901092  0.53172025    -0.92900
C3366       C  0.67156206  0.67180466  0.00165719     1.01800
C3367       C  0.67189216  0.82837835  0.99998718     1.01600
C3368       C  0.67223220  0.75043552  0.57900981     1.01600
C3369       C  0.67129370  0.75113763  0.92252520     0.99400
H3370       H  0.70684100  0.79388107  0.54445634     0.29200
O3371       O  0.71942803  0.78105323  0.53171662    -1.01700
H3372       H  0.70573180  0.70618024  0.95674028     0.29200
O3373       O  0.71851377  0.71887210  0.96937692    -1.04200
O3374       O  0.80002638  0.83681322  0.00035640    -0.81400
O3375       O  0.79942348  0.66245817  0.99947727    -0.81000
O3376       O  0.75047930  0.79988402  0.58770120    -0.79400
O3377       O  0.74896606  0.80017945  0.91316164    -0.82800
O3378       O  0.75016856  0.69965239  0.91362210    -0.80600
O3379       O  0.75041822  0.69969561  0.58756311    -0.79300
O3380       O  0.83729701  0.74940615  0.54959823    -0.80800
O3381       O  0.83608617  0.75016156  0.94958107    -0.82700
O3382       O  0.80087453  0.74986968  0.58678871    -0.79400
O3383       O  0.79918439  0.75034999  0.91293978    -0.82100
O3384       O  0.75187529  0.83690145  0.55082702    -0.77800
O3385       O  0.74873885  0.66287614  0.55053834    -0.77900
O3386       O  0.74993455  0.66288800  0.95056778    -0.77500
O3387       O  0.74832212  0.83716807  0.95001010    -0.81000
O3388       O  0.83657525  0.79971142  0.00075699    -0.80400
O3389       O  0.83611753  0.69936794  0.99871501    -0.78800
Eu3390     Eu  0.74994436  0.81194990  0.00022833     2.39800
Eu3391     Eu  0.74952147  0.68803396  0.00051978     2.39600
Eu3392     Eu  0.75040039  0.74982624  0.56246002     2.38400
Eu3393     Eu  0.74945757  0.74999688  0.93844320     2.39900
Eu3394     Eu  0.81133998  0.74969725  0.99991155     2.39800
O3395       O  0.78029028  0.71879263  0.96921737    -0.93200
O3396       O  0.78131176  0.78070806  0.53141639    -0.92100
C3397       C  0.82806479  0.82793168  0.00077246     1.02000
C3398       C  0.82749436  0.67117794  0.99868419     1.00700
C3399       C  0.75129295  0.82800360  0.57890530     1.00100
C3400       C  0.74828372  0.82835174  0.92187948     1.02100
C3401       C  0.75026858  0.67149105  0.92242043     1.01000
C3402       C  0.74938384  0.67162341  0.57864926     0.99900
C3403       C  0.82890517  0.74961770  0.57781048     0.99900
C3404       C  0.82729241  0.75043695  0.92146103     1.02500
H3405       H  0.79380480  0.70580051  0.54383969     0.29900
O3406       O  0.78105735  0.71864960  0.53129422    -1.05400
H3407       H  0.79328879  0.79379139  0.95626000     0.32000
O3408       O  0.78067066  0.78103004  0.96901228    -1.07900
C3409       C  0.73319910  0.59797072  0.62092106    -0.21700
C3410       C  0.74994790  0.60221003  0.64785725    -0.09700
C3411       C  0.76655781  0.62936252  0.65182134     0.29200
C3412       C  0.76601952  0.65196542  0.62932951    -0.21700
C3413       C  0.74924651  0.64774910  0.60240067    -0.09700
C3414       C  0.73273958  0.62053342  0.59837963     0.29200
F3415       F  0.71544905  0.61611927  0.57310219    -0.20200
H3416       H  0.72003782  0.57733798  0.61753982     0.17500
H3417       H  0.77923355  0.67256707  0.63269383     0.17500
F3418       F  0.78413682  0.63360616  0.67692993    -0.20200
C3419       C  0.76931513  0.87810325  0.59903254    -0.21700
C3420       C  0.75144105  0.85179086  0.60273460    -0.09700
C3421       C  0.73370809  0.84853967  0.62926279     0.29200
C3422       C  0.73402988  0.87122431  0.65168402    -0.21700
C3423       C  0.75178350  0.89760637  0.64793118    -0.09700
C3424       C  0.76963966  0.90080013  0.62147555     0.29200
F3425       F  0.78808200  0.92538424  0.61775982    -0.20200
H3426       H  0.78340135  0.88086038  0.57892157     0.17500
H3427       H  0.71989127  0.86846743  0.67175959     0.17500
F3428       F  0.71523325  0.82398027  0.63300176    -0.20200
C3429       C  0.73414698  0.90308295  0.87995099    -0.21700
C3430       C  0.74835369  0.89753529  0.85172945    -0.09700
C3431       C  0.76219531  0.86894557  0.84673944     0.29200
C3432       C  0.76181256  0.84657564  0.86952906    -0.21700
C3433       C  0.74780838  0.85218207  0.89781799    -0.09700
C3434       C  0.73371903  0.88066342  0.90274074     0.29200
F3435       F  0.71882150  0.88659082  0.92923863    -0.20200
H3436       H  0.72297959  0.92472290  0.88425756     0.17500
H3437       H  0.77303975  0.82496642  0.86521955     0.17500
F3438       F  0.77698529  0.86288933  0.82021309    -0.20200
C3439       C  0.75313125  0.65571857  0.86756956    -0.21700
C3440       C  0.75076208  0.64744277  0.89847971    -0.09700
C3441       C  0.74883821  0.61616298  0.90593157     0.29200
C3442       C  0.74913818  0.59403516  0.88298233    -0.21700
C3443       C  0.75127780  0.60232869  0.85205511    -0.09700
C3444       C  0.75338908  0.63359210  0.84462104     0.29200
F3445       F  0.75574999  0.64304545  0.81522106    -0.20200
H3446       H  0.75479359  0.67948739  0.86096394     0.17500
H3447       H  0.74743677  0.57026773  0.88958529     0.17500
F3448       F  0.74636242  0.60670355  0.93532379    -0.20200
C3449       C  0.86726445  0.65609213  0.75022569    -0.21700
C3450       C  0.89808544  0.64773320  0.75275633    -0.09700
C3451       C  0.90537724  0.61652385  0.75584013     0.29200
C3452       C  0.88243837  0.59444783  0.75553623    -0.21700
C3453       C  0.85166692  0.60276004  0.75242552    -0.09700
C3454       C  0.84430978  0.63404394  0.75014130     0.29200
F3455       F  0.81501538  0.64358158  0.74749209    -0.20200
H3456       H  0.86074991  0.67984574  0.74802028     0.17500
H3457       H  0.88893070  0.57069218  0.75776519     0.17500
F3458       F  0.93461791  0.60709741  0.75927022    -0.20200
C3459       C  0.90584942  0.88298448  0.74783271    -0.21700
C3460       C  0.89764075  0.85199462  0.74942555    -0.09700
C3461       C  0.86645742  0.84445674  0.75075882     0.29200
C3462       C  0.84433527  0.86737755  0.75054223    -0.21700
C3463       C  0.85253303  0.89836085  0.74897809    -0.09700
C3464       C  0.88372553  0.90590991  0.74757549     0.29200
F3465       F  0.89311836  0.93538554  0.74585923    -0.20200
H3466       H  0.92955362  0.88966582  0.74670969     0.17500
H3467       H  0.82063511  0.86069593  0.75171774     0.17500
F3468       F  0.85707405  0.81498325  0.75243255    -0.20200
C3469       C  0.63282178  0.65619177  0.75385414    -0.21700
C3470       C  0.60234078  0.64825367  0.74817120    -0.09700
C3471       C  0.59530444  0.61740245  0.74228994     0.29200
C3472       C  0.61817378  0.59523791  0.74256292    -0.21700
C3473       C  0.64860700  0.60312902  0.74850165    -0.09700
C3474       C  0.65571467  0.63403399  0.75402953     0.29200
F3475       F  0.68465510  0.64300116  0.76011390    -0.20200
H3476       H  0.63905454  0.67964878  0.75852801     0.17500
H3477       H  0.61194016  0.57177705  0.73790496     0.17500
F3478       F  0.56641603  0.60846400  0.73593892    -0.20200
C3479       C  0.63231738  0.84475172  0.74947816    -0.21700
C3480       C  0.60141827  0.85304811  0.75106707    -0.09700
C3481       C  0.59396980  0.88437303  0.75234984     0.29200
C3482       C  0.61688816  0.90651514  0.75194314    -0.21700
C3483       C  0.64779260  0.89819455  0.75034723    -0.09700
C3484       C  0.65522052  0.86687185  0.74914317     0.29200
F3485       F  0.68458809  0.85733806  0.74755247    -0.20200
H3486       H  0.63895783  0.82095674  0.74840747     0.17500
H3487       H  0.61027644  0.93032006  0.75299081     0.17500
F3488       F  0.56459710  0.89386377  0.75414360    -0.20200
C3489       C  0.90633777  0.75132374  0.61692137    -0.21700
C3490       C  0.89815839  0.74981604  0.64791997    -0.09700
C3491       C  0.86699302  0.74795014  0.65547989     0.29200
C3492       C  0.84487035  0.74783741  0.63261444    -0.21700
C3493       C  0.85301535  0.74952017  0.60163324    -0.09700
C3494       C  0.88419108  0.75115347  0.59403204     0.29200
F3495       F  0.89352486  0.75274457  0.56454370    -0.20200
H3496       H  0.93002698  0.75272363  0.61021507     0.17500
H3497       H  0.82119405  0.74637951  0.63935117     0.17500
F3498       F  0.85761229  0.74612458  0.68493636    -0.20200
C3499       C  0.65627570  0.75310012  0.63389268    -0.21700
C3500       C  0.64819343  0.75085375  0.60293523    -0.09700
C3501       C  0.61703528  0.74904301  0.59534707     0.29200
C3502       C  0.59485332  0.74908885  0.61817899    -0.21700
C3503       C  0.60292250  0.75104825  0.64914021    -0.09700
C3504       C  0.63405826  0.75326533  0.65674233     0.29200
F3505       F  0.64328454  0.75572028  0.68619234    -0.20200
H3506       H  0.67993859  0.75480086  0.64058879     0.17500
H3507       H  0.57119987  0.74744073  0.61143821     0.17500
F3508       F  0.60771832  0.74701788  0.56589823    -0.20200
C3509       C  0.61639278  0.75068585  0.90692974    -0.21700
C3510       C  0.64730830  0.75161964  0.89859901    -0.09700
C3511       C  0.65477957  0.75279928  0.86731996     0.29200
C3512       C  0.63191055  0.75259422  0.84522153    -0.21700
C3513       C  0.60101395  0.75133498  0.85350892    -0.09700
C3514       C  0.59349429  0.75058315  0.88480615     0.29200
F3515       F  0.56408447  0.74962312  0.89428930    -0.20200
H3516       H  0.60975976  0.74988596  0.93071714     0.17500
H3517       H  0.63858525  0.75338388  0.82144737     0.17500
F3518       F  0.68415727  0.75413261  0.85779805    -0.20200
C3519       C  0.86671763  0.74972892  0.84402025    -0.21700
C3520       C  0.89761491  0.75073477  0.85235176    -0.09700
C3521       C  0.90501417  0.75248001  0.88361368     0.29200
C3522       C  0.88208466  0.75243553  0.90571047    -0.21700
C3523       C  0.85120233  0.75094717  0.89740961    -0.09700
C3524       C  0.84376899  0.74995707  0.86611761     0.29200
F3525       F  0.81438106  0.74908506  0.85661032    -0.20200
H3526       H  0.86013031  0.74866346  0.82024131     0.17500
H3527       H  0.88868731  0.75360763  0.92947978     0.17500
F3528       F  0.93436173  0.75438023  0.89309616    -0.20200
C3529       C  0.90565917  0.86735729  0.50546805    -0.21700
C3530       C  0.89767982  0.89814462  0.50096376    -0.09700
C3531       C  0.86616154  0.90561477  0.99683867     0.29200
C3532       C  0.84404000  0.88270566  0.99689537    -0.21700
C3533       C  0.85258498  0.85177986  0.50111943    -0.09700
C3534       C  0.88352777  0.84443999  0.50558566     0.29200
F3535       F  0.89260164  0.81519227  0.51036788    -0.20200
H3536       H  0.92917652  0.86086030  0.50907166     0.17500
H3537       H  0.82052126  0.88923146  0.99335782     0.17500
F3538       F  0.85704772  0.93488199  0.99223597    -0.20200
C3539       C  0.88216670  0.65553373  0.00330998    -0.21700
C3540       C  0.85183531  0.64746872  0.49810889    -0.09700
C3541       C  0.84476082  0.61626216  0.49472021     0.29200
C3542       C  0.86786707  0.59432985  0.49486804    -0.21700
C3543       C  0.89859103  0.60277228  0.49812734    -0.09700
C3544       C  0.90530491  0.63359972  0.00326408     0.29200
F3545       F  0.93425259  0.64291441  0.00878078    -0.20200
H3546       H  0.88824456  0.67905278  0.00787329     0.17500
H3547       H  0.86153701  0.57057349  0.49232737     0.17500
F3548       F  0.81560517  0.60670997  0.49100755    -0.20200
C3549       C  0.63279995  0.90568241  0.49980045    -0.21700
C3550       C  0.60192483  0.89725417  0.49871733    -0.09700
C3551       C  0.59414619  0.86599147  0.99661172     0.29200
C3552       C  0.61712801  0.84394216  0.99694501    -0.21700
C3553       C  0.64842709  0.85233291  0.49923458    -0.09700
C3554       C  0.65578847  0.88364761  0.50002879     0.29200
F3555       F  0.68514196  0.89323702  0.50117714    -0.20200
H3556       H  0.63935147  0.92949969  0.50062545     0.17500
H3557       H  0.61065621  0.82017180  0.99495301     0.17500
F3558       F  0.56487843  0.85651040  0.99372653    -0.20200
C3559       C  0.59456784  0.63233485  0.50491038    -0.21700
C3560       C  0.60266718  0.60143979  0.50152189    -0.09700
C3561       C  0.63369862  0.59397222  0.00474454     0.29200
C3562       C  0.65578594  0.61691253  0.00475206    -0.21700
C3563       C  0.64777952  0.64778428  0.50206052    -0.09700
C3564       C  0.61670183  0.65523048  0.50526713     0.29200
F3565       F  0.60746019  0.68458779  0.50891374    -0.20200
H3566       H  0.57093713  0.63895806  0.50738386     0.17500
H3567       H  0.67944458  0.61028761  0.00691349     0.17500
F3568       F  0.64301294  0.56455266  0.00767210    -0.20200
C3569       C  0.84418060  0.49834069  0.88284887    -0.21700
C3570       C  0.85231121  0.49997762  0.85184263    -0.09700
C3571       C  0.88319461  0.99975340  0.84424028     0.29200
C3572       C  0.90526431  0.99996293  0.86717065    -0.21700
C3573       C  0.89753261  0.50001394  0.89819516    -0.09700
C3574       C  0.86634669  0.49830234  0.90574125     0.29200
F3575       F  0.85701197  0.49640033  0.93520700    -0.18600
H3576       H  0.82049388  0.49699238  0.88956964     0.17500
H3577       H  0.92899390  0.00023207  0.86046586     0.17500
F3578       F  0.89269038  0.99974746  0.81476274    -0.20200
C3579       C  0.63143520  0.00533688  0.90434050    -0.21700
C3580       C  0.60141524  0.50019306  0.89706226    -0.09700
C3581       C  0.59433136  0.49428138  0.86624053     0.29200
C3582       C  0.61718690  0.49458076  0.84402470    -0.21700
C3583       C  0.64760302  0.50086262  0.85180232    -0.09700
C3584       C  0.65434123  0.00580860  0.88220900     0.29200
F3585       F  0.68328113  0.01171215  0.89127686    -0.20200
H3586       H  0.63773292  0.00945563  0.92786376     0.17500
H3587       H  0.61098855  0.48956679  0.82064607     0.17500
F3588       F  0.56544514  0.48774347  0.85741927    -0.20200
C3589       C  0.65599262  0.99697417  0.61668301    -0.21700
C3590       C  0.64769969  0.50123447  0.64767484    -0.09700
C3591       C  0.61669961  0.50515339  0.65513796     0.29200
C3592       C  0.59451345  0.50483876  0.63232534    -0.21700
C3593       C  0.60248469  0.50068890  0.60152777    -0.09700
C3594       C  0.63377717  0.99663075  0.59390627     0.29200
F3595       F  0.64279173  0.99178628  0.56467504    -0.20200
H3596       H  0.67949996  0.99341503  0.61011697     0.17500
H3597       H  0.57095735  0.50799391  0.63892268     0.17500
F3598       F  0.60759163  0.50951743  0.68441660    -0.20200
C3599       C  0.86800479  0.00342922  0.59416580    -0.21700
C3600       C  0.89824870  0.49890029  0.60247441    -0.09700
C3601       C  0.90543576  0.49466823  0.63353872     0.29200
C3602       C  0.88246786  0.49481017  0.65560278    -0.21700
C3603       C  0.85181340  0.49913614  0.64741683    -0.09700
C3604       C  0.84506236  0.00361376  0.61622574     0.29200
F3605       F  0.81606220  0.00909576  0.60704768    -0.20200
H3606       H  0.86172212  0.00760381  0.57064352     0.17500
H3607       H  0.88882573  0.49142530  0.67923056     0.17500
F3608       F  0.93457704  0.49018195  0.64280984    -0.20200
C3609       C  0.50004656  0.65499774  0.88237615    -0.21700
C3610       C  0.50060481  0.64659702  0.85141692    -0.09700
C3611       C  0.00150858  0.61527787  0.84396770     0.29200
C3612       C  0.00159475  0.59321602  0.86698372    -0.21700
C3613       C  0.50079883  0.60164706  0.89794140    -0.09700
C3614       C  0.50015586  0.63295840  0.90536908     0.29200
F3615       F  0.49946376  0.64255466  0.93480713    -0.20200
H3616       H  0.49943613  0.67880981  0.88900387     0.17500
H3617       H  0.00223948  0.56939104  0.86039834     0.17500
F3618       F  0.00227581  0.60571239  0.81451878    -0.20200
C3619       C  0.00783367  0.86701278  0.90575884    -0.21700
C3620       C  0.50029943  0.89727724  0.89811649    -0.09700
C3621       C  0.49301491  0.90417448  0.86758697     0.29200
C3622       C  0.49326148  0.88129757  0.84545102    -0.21700
C3623       C  0.50067538  0.85102541  0.85307312    -0.09700
C3624       C  0.00809625  0.84410580  0.88358461     0.29200
F3625       F  0.01608501  0.81537817  0.89207252    -0.20200
H3626       H  0.01380912  0.86100493  0.92896827     0.17500
H3627       H  0.48723999  0.88734849  0.82226710     0.17500
F3628       F  0.48502418  0.93287297  0.85903248    -0.20200
C3629       C  0.00713321  0.90513208  0.63228464    -0.21700
C3630       C  0.49837250  0.89782331  0.60232311    -0.09700
C3631       C  0.48938003  0.86764027  0.59579521     0.29200
C3632       C  0.48958074  0.84542360  0.61868764    -0.21700
C3633       C  0.49859323  0.85268419  0.64859173    -0.09700
C3634       C  0.00733133  0.88292481  0.65516959     0.29200
F3635       F  0.01684473  0.89102701  0.68349210    -0.20200
H3636       H  0.01435419  0.92806434  0.63801386     0.17500
H3637       H  0.48241793  0.82246932  0.61296573     0.17500
F3638       F  0.47991367  0.85954757  0.56745083    -0.20200
C3639       C  0.98948303  0.61871396  0.65434727    -0.21700
C3640       C  0.49944934  0.64839439  0.64732225    -0.09700
C3641       C  0.50881740  0.65484527  0.61725208     0.29200
C3642       C  0.50854898  0.63197692  0.59503777    -0.21700
C3643       C  0.49895299  0.60221114  0.60215497    -0.09700
C3644       C  0.98906905  0.59587926  0.63208540     0.29200
F3645       F  0.97841095  0.56783506  0.63982759    -0.20200
H3646       H  0.98165994  0.61316072  0.67712099     0.17500
H3647       H  0.51634258  0.63754599  0.57225785     0.17500
F3648       F  0.51895242  0.68302568  0.60932843    -0.20200
loop_ 
_geom_bond_atom_site_label_1 
_geom_bond_atom_site_label_2 
_geom_bond_distance 
_geom_bond_site_symmetry_2 
_ccdc_geom_bond_type 
O1           C12   1.290       .  A
O1          Eu37   2.451   1_545  S
O2           C13   1.291       .  A
O2          Eu36   2.452   1_445  S
O3           C14   1.292       .  A
O3           Eu9   2.458   1_554  S
O4           C15   1.291       .  A
O4        Eu1833   2.456       .  S
O5           C15   1.292       .  A
O5          Eu39   2.456   1_556  S
O6           C14   1.290   1_556  A
O6          Eu38   2.453   1_545  S
O7           C13   1.290       .  A
O7         Eu465   2.451       .  S
O8           C12   1.292       .  A
O8           Eu9   2.460   1_554  S
Eu9        O1828   2.456   1_455  S
Eu9         O463   2.455       .  S
Eu9          O11   2.348   1_556  S
Eu9        O1843   2.352   1_456  S
Eu9        O2290   2.351   1_455  S
Eu9         O473   2.351       .  S
O10       Eu2289   2.352       .  S
O10        Eu495   2.348       .  S
O10       Eu1860   2.349   1_545  S
O11         Eu37   2.350   1_545  S
O11         Eu38   2.350   1_544  S
C12         C451   1.487   1_455  S
C13         C421   1.485       .  S
C14         C368   1.487       .  S
C15         C351   1.488       .  S
H16          O17   0.966       .  S
O17         Eu36   2.354   1_445  S
O17        Eu465   2.352       .  S
O17        Eu494   2.348   1_545  S
H18          O19   0.966       .  S
O19         Eu39   2.352       .  S
O19       Eu1833   2.352   1_554  S
O19       Eu1861   2.354   1_545  S
O20          C43   1.290   1_655  A
O20        Eu948   2.453       .  S
O21          C44   1.291       .  A
O21        Eu949   2.453   1_655  S
O22          C45   1.292       .  A
O22        Eu494   2.461       .  S
O23          C46   1.291       .  A
O23        Eu495   2.460   1_565  S
O24          C47   1.291       .  A
O24         Eu39   2.454   1_565  S
O25          C48   1.291   1_565  A
O25         Eu38   2.455   1_554  S
O26          C49   1.290       .  A
O26         Eu40   2.454   1_456  S
O27          C50   1.292       .  A
O27       Eu1864   2.460       .  S
O28          C49   1.291       .  A
O28        Eu950   2.451       .  S
O29          C50   1.291       .  A
O29        Eu951   2.456       .  S
O30          C45   1.291       .  A
O30         Eu36   2.458   1_455  S
O31          C48   1.292       .  A
O31         Eu37   2.457   1_545  S
O32          C47   1.291       .  A
O32       Eu1861   2.455       .  S
O33          C46   1.293       .  A
O33       Eu1860   2.464       .  S
O34          C43   1.291       .  A
O34        Eu496   2.454   1_455  S
O35          C44   1.290       .  A
O35         Eu40   2.454       .  S
Eu36        O932   2.452   1_655  S
Eu36       O1857   2.464       .  S
Eu36       O1834   2.349   1_565  S
Eu36       O2790   2.350       .  S
Eu36        O954   2.349   1_655  S
Eu37        O933   2.455   1_455  S
Eu37       O1856   2.455   1_455  S
Eu37       O1843   2.354   1_465  S
Eu37       O2777   2.346   1_455  S
Eu37        O964   2.351       .  S
Eu38        O478   2.463       .  S
Eu38        O940   2.450       .  S
Eu38        O473   2.347   1_565  S
Eu38        O964   2.354   1_556  S
Eu38       O1410   2.349       .  S
Eu39        O479   2.454   1_554  S
Eu39        O941   2.454   1_545  S
Eu39        O466   2.347   1_554  S
Eu39        O953   2.347   1_545  S
Eu39       O1422   2.351   1_544  S
Eu40       O1851   2.460       .  S
Eu40        O490   2.451   1_654  S
Eu40         O52   2.352   1_655  S
Eu40       O1865   2.346       .  S
Eu40       O2334   2.352   1_554  S
Eu40        O498   2.351   1_654  S
O41       Eu2773   2.348       .  S
O41        Eu951   2.349       .  S
O41       Eu1864   2.346       .  S
O42        Eu948   2.350   1_455  S
O42       Eu1406   2.349       .  S
O42        Eu496   2.351   1_455  S
C43         C428   1.482       .  S
C44         C438   1.482       .  S
C45         C388   1.485       .  S
C46         C381   1.492       .  S
C47         C408   1.486       .  S
C48         C401   1.487       .  S
C49         C358   1.485       .  S
C50         C338   1.489       .  S
H51          O52   0.966       .  S
O52        Eu949   2.352       .  S
O52        Eu950   2.354   1_554  S
H53          O54   0.965       .  S
O54       Eu2772   2.351       .  S
O54       Eu1407   2.350       .  S
O54       Eu2320   2.352       .  S
O55          C66   1.291       .  A
O55         Eu91   2.456   1_455  S
O56          C67   1.291       .  A
O56         Eu90   2.454       .  S
O57          C68   1.290       .  A
O57         Eu63   2.451   1_455  S
O58          C69   1.291       .  A
O58       Eu1887   2.456       .  S
O59          C69   1.291       .  A
O59         Eu93   2.453       .  S
O60          C68   1.292       .  A
O60         Eu92   2.457       .  S
O61          C67   1.290   1_455  A
O61         Eu63   2.449   1_455  S
O62          C66   1.292   1_655  A
O62         Eu63   2.457       .  S
Eu63       O1882   2.456       .  S
Eu63         O65   2.347   1_655  S
Eu63         O71   2.355   1_655  S
Eu63       O1897   2.348       .  S
Eu63       O1888   2.349       .  S
O64         Eu93   2.348       .  S
O64       Eu1887   2.349       .  S
O64       Eu1914   2.348       .  S
O65         Eu91   2.349   1_455  S
O65         Eu92   2.353       .  S
C66         C448   1.488   1_455  S
C67         C418   1.485   1_655  S
C68         C278   1.486       .  S
C69         C258   1.487       .  S
H70          O71   0.966       .  S
O71         Eu92   2.350       .  S
O71         Eu90   2.350   1_455  S
H72          O73   0.965       .  S
O73         Eu93   2.351       .  S
O73       Eu1887   2.348       .  S
O73       Eu1915   2.351       .  S
O74          C97   1.290       .  A
O74         Eu90   2.450   1_455  S
O75          C98   1.291       .  A
O75         Eu91   2.455       .  S
O76          C99   1.293       .  A
O76         Eu92   2.464       .  S
O77         C100   1.292       .  A
O77         Eu93   2.457       .  S
O78         C101   1.291       .  A
O78         Eu93   2.454       .  S
O79         C102   1.290       .  A
O79         Eu92   2.451       .  S
O80         C103   1.291       .  A
O80         Eu94   2.458   1_455  S
O81         C104   1.291       .  A
O81       Eu1918   2.455       .  S
O82         C103   1.292       .  A
O82         Eu92   2.459       .  S
O83         C104   1.290       .  A
O83         Eu93   2.452       .  S
O84          C99   1.290       .  A
O84         Eu90   2.453   1_455  S
O85         C102   1.293       .  A
O85         Eu91   2.462   1_455  S
O86         C101   1.293       .  A
O86       Eu1915   2.463       .  S
O87         C100   1.290       .  A
O87       Eu1914   2.452       .  S
O88          C97   1.292   1_655  A
O88         Eu94   2.456       .  S
O89          C98   1.290       .  A
O89         Eu94   2.452       .  S
Eu90       O1911   2.452       .  S
Eu90         O96   2.348   1_655  S
Eu90       O1888   2.348       .  S
Eu90       O1932   2.352       .  S
Eu91       O1910   2.463       .  S
Eu91        O106   2.354   1_655  S
Eu91       O1897   2.351       .  S
Eu91       O1919   2.349       .  S
Eu92        O106   2.354       .  S
Eu92         O96   2.345       .  S
Eu93         O95   2.349       .  S
Eu93        O108   2.350       .  S
Eu94       O1905   2.455       .  S
Eu94        O106   2.350   1_655  S
Eu94         O96   2.348   1_655  S
Eu94       O1919   2.349       .  S
Eu94       O1932   2.350       .  S
O95       Eu1915   2.349       .  S
O95       Eu1918   2.349       .  S
C97         C431   1.482       .  S
C98         C441   1.482       .  S
C99         C321   1.490       .  S
C100        C328   1.487       .  S
C101        C298   1.489       .  S
C102        C311   1.488       .  S
C103        C288   1.489       .  S
C104        C268   1.486       .  S
H105        O106   0.966       .  S
H107        O108   0.966       .  S
O108      Eu1914   2.352       .  S
O108      Eu1918   2.350       .  S
O109        C120   1.292       .  A
O109       Eu145   2.457       .  S
O110        C121   1.290       .  A
O110       Eu144   2.451       .  S
O111        C122   1.292       .  A
O111       Eu117   2.462       .  S
O112        C123   1.291       .  A
O112      Eu1029   2.454       .  S
O113        C123   1.291       .  A
O113       Eu147   2.455       .  S
O114        C122   1.291       .  A
O114       Eu146   2.457       .  S
O115        C121   1.292       .  A
O115       Eu117   2.458       .  S
O116        C120   1.291       .  A
O116       Eu117   2.455       .  S
Eu117      O1024   2.457       .  S
Eu117       O119   2.348       .  S
Eu117       O125   2.352       .  S
Eu117      O1039   2.355       .  S
Eu117      O1030   2.351       .  S
O118       Eu147   2.350       .  S
O118      Eu1029   2.350       .  S
O118      Eu1056   2.350       .  S
O119       Eu145   2.349       .  S
O119       Eu146   2.349       .  S
C120       C1323   1.486       .  S
C121       C1310   1.485       .  S
C122        C231   1.477       .  S
C123        C218   1.474       .  S
H124        O125   0.966       .  S
O125       Eu146   2.353       .  S
O125       Eu144   2.355       .  S
H126        O127   0.966       .  S
O127       Eu147   2.351       .  S
O127      Eu1029   2.355       .  S
O127      Eu1057   2.349       .  S
O128        C151   1.292       .  A
O128       Eu144   2.457       .  S
O129        C152   1.291       .  A
O129       Eu145   2.455       .  S
O130        C153   1.291       .  A
O130       Eu146   2.456       .  S
O131        C154   1.290       .  A
O131       Eu147   2.450       .  S
O132        C155   1.289       .  A
O132       Eu147   2.448       .  S
O133        C156   1.292       .  A
O133       Eu146   2.460       .  S
O134        C157   1.292       .  A
O134       Eu148   2.460       .  S
O135        C158   1.292       .  A
O135      Eu1060   2.457       .  S
O136        C157   1.292       .  A
O136       Eu146   2.460       .  S
O137        C158   1.291       .  A
O137       Eu147   2.457       .  S
O138        C153   1.292       .  A
O138       Eu144   2.458       .  S
O139        C156   1.290       .  A
O139       Eu145   2.448       .  S
O140        C155   1.292       .  A
O140      Eu1057   2.461       .  S
O141        C154   1.292       .  A
O141      Eu1056   2.457       .  S
O142        C151   1.292       .  A
O142       Eu148   2.460       .  S
O143        C152   1.292       .  A
O143       Eu148   2.461       .  S
Eu144      O1053   2.462       .  S
Eu144       O150   2.350       .  S
Eu144      O1030   2.350       .  S
Eu144      O1074   2.351       .  S
Eu145      O1052   2.460       .  S
Eu145       O160   2.354       .  S
Eu145      O1039   2.350       .  S
Eu145      O1061   2.346       .  S
Eu146       O160   2.352       .  S
Eu146       O150   2.349       .  S
Eu147       O149   2.348       .  S
Eu147       O162   2.351       .  S
Eu148      O1047   2.457       .  S
Eu148       O160   2.352       .  S
Eu148       O150   2.349       .  S
Eu148      O1061   2.351       .  S
Eu148      O1074   2.354       .  S
O149      Eu1057   2.347       .  S
O149      Eu1060   2.351       .  S
C151       C1303   1.488       .  S
C152       C1290   1.489       .  S
C153        C291   1.489       .  S
C154        C281   1.487       .  S
C155        C261   1.487       .  S
C156        C271   1.486       .  S
C157        C238   1.488       .  S
C158        C251   1.489       .  S
H159        O160   0.966       .  S
H161        O162   0.966       .  S
O162      Eu1056   2.353       .  S
O162      Eu1060   2.355       .  S
O163        C174   1.291       .  A
O163       Eu199   2.453       .  S
O164        C175   1.291       .  A
O164       Eu198   2.454       .  S
O165        C176   1.290       .  A
O165       Eu627   2.451       .  S
O166        C177   1.292       .  A
O166       Eu171   2.461       .  S
O167        C177   1.291       .  A
O167       Eu201   2.454       .  S
O168        C176   1.293       .  A
O168       Eu200   2.463       .  S
O169        C175   1.291       .  A
O169       Eu171   2.452       .  S
O170        C174   1.291       .  A
O170       Eu171   2.456       .  S
Eu171       O621   2.453       .  S
Eu171       O181   2.351       .  S
Eu171       O172   2.347       .  S
Eu171       O629   2.351       .  S
Eu171       O635   2.352       .  S
O172       Eu201   2.347       .  S
O172       Eu198   2.350       .  S
O173       Eu200   2.351       .  S
O173       Eu627   2.349       .  S
O173       Eu655   2.350       .  S
C174        C827   1.487       .  S
C175        C817   1.486       .  S
C176        C308   1.488       .  S
C177        C318   1.490       .  S
H178        O179   0.966       .  S
O179       Eu200   2.352       .  S
O179       Eu627   2.354       .  S
O179       Eu654   2.353       .  S
H180        O181   0.966       .  S
O181       Eu199   2.354       .  S
O181       Eu201   2.353       .  S
O182        C205   1.291       .  A
O182       Eu198   2.454       .  S
O183        C206   1.292       .  A
O183       Eu199   2.461       .  S
O184        C207   1.291       .  A
O184       Eu200   2.458       .  S
O185        C208   1.292       .  A
O185       Eu201   2.459       .  S
O186        C209   1.293       .  A
O186       Eu201   2.462       .  S
O187        C210   1.291       .  A
O187       Eu200   2.455       .  S
O188        C211   1.291       .  A
O188       Eu658   2.454   1_554  S
O189        C212   1.292       .  A
O189       Eu202   2.457       .  S
O190        C211   1.293       .  A
O190       Eu200   2.461       .  S
O191        C212   1.290       .  A
O191       Eu201   2.452       .  S
O192        C207   1.291       .  A
O192       Eu654   2.460       .  S
O193        C210   1.291       .  A
O193       Eu655   2.455       .  S
O194        C209   1.290       .  A
O194       Eu199   2.451       .  S
O195        C208   1.292       .  A
O195       Eu198   2.461       .  S
O196        C205   1.291       .  A
O196       Eu202   2.456       .  S
O197        C206   1.291       .  A
O197       Eu202   2.455       .  S
Eu198       O648   2.458       .  S
Eu198       O216   2.351       .  S
Eu198       O635   2.351       .  S
Eu198       O660   2.350       .  S
Eu199       O649   2.454       .  S
Eu199       O203   2.349       .  S
Eu199       O629   2.351       .  S
Eu199       O670   2.350       .  S
Eu200       O214   2.355       .  S
Eu200       O204   2.350       .  S
Eu201       O203   2.349       .  S
Eu201       O216   2.353       .  S
Eu202       O644   2.453       .  S
Eu202       O203   2.348       .  S
Eu202       O216   2.351       .  S
Eu202       O670   2.353       .  S
Eu202       O660   2.350       .  S
O204       Eu654   2.349       .  S
O204       Eu658   2.349   1_554  S
C205        C797   1.487       .  S
C206        C804   1.488       .  S
C207        C228   1.477       .  S
C208        C241   1.487       .  S
C209        C248   1.489       .  S
C210        C221   1.474       .  S
C211        C301   1.489       .  S
C212        C331   1.487       .  S
H213        O214   0.966       .  S
O214       Eu655   2.350       .  S
O214       Eu658   2.353   1_554  S
H215        O216   0.966       .  S
C217        C218   1.404       .  A
C217        C222   1.397       .  A
C217        H224   1.084       .  S
C218        C219   1.407       .  A
C219        C220   1.397       .  A
C219        F226   1.358       .  S
C220        C221   1.404       .  A
C220        H225   1.084       .  S
C221        C222   1.407       .  A
C222        F223   1.358       .  S
C227        C228   1.405       .  A
C227        C232   1.399       .  A
C227        H234   1.084       .  S
C228        C229   1.407       .  A
C229        C230   1.398       .  A
C229        F236   1.358       .  S
C230        C231   1.404       .  A
C230        H235   1.084       .  S
C231        C232   1.407       .  A
C232        F233   1.358       .  S
C237        C238   1.407       .  A
C237        C242   1.400       .  A
C237        H244   1.083       .  S
C238        C239   1.410       .  A
C239        C240   1.398       .  A
C239        F246   1.358       .  S
C240        C241   1.406       .  A
C240        H245   1.083       .  S
C241        C242   1.410       .  A
C242        F243   1.358       .  S
C247        C248   1.406       .  A
C247        C252   1.397       .  A
C247        H254   1.083       .  S
C248        C249   1.411       .  A
C249        C250   1.398       .  A
C249        F256   1.358       .  S
C250        C251   1.407       .  A
C250        H255   1.083       .  S
C251        C252   1.411       .  A
C252        F253   1.357       .  S
C257        C258   1.407       .  A
C257        C262   1.397       .  A
C257        H264   1.083       .  S
C258        C259   1.410       .  A
C259        C260   1.397       .  A
C259        F266   1.357       .  S
C260        C261   1.406       .  A
C260        H265   1.083       .  S
C261        C262   1.411       .  A
C262        F263   1.358       .  S
C267        C268   1.406       .  A
C267        C272   1.396       .  A
C267        H274   1.083       .  S
C268        C269   1.411       .  A
C269        C270   1.396       .  A
C269        F276   1.357       .  S
C270        C271   1.406       .  A
C270        H275   1.083       .  S
C271        C272   1.411       .  A
C272        F273   1.358       .  S
C277        C278   1.406       .  A
C277        C282   1.397       .  A
C277        H284   1.083       .  S
C278        C279   1.411       .  A
C279        C280   1.396       .  A
C279        F286   1.358       .  S
C280        C281   1.406       .  A
C280        H285   1.083       .  S
C281        C282   1.411       .  A
C282        F283   1.358       .  S
C287        C288   1.407       .  A
C287        C292   1.398       .  A
C287        H294   1.083       .  S
C288        C289   1.411       .  A
C289        C290   1.398       .  A
C289        F296   1.357       .  S
C290        C291   1.407       .  A
C290        H295   1.083       .  S
C291        C292   1.411       .  A
C292        F293   1.358       .  S
C297        C298   1.407       .  A
C297        C302   1.398       .  A
C297        H304   1.083       .  S
C298        C299   1.411       .  A
C299        C300   1.397       .  A
C299        F306   1.358       .  S
C300        C301   1.406       .  A
C300        H305   1.083       .  S
C301        C302   1.411       .  A
C302        F303   1.358       .  S
C307        C308   1.406       .  A
C307        C312   1.398       .  A
C307        H314   1.083       .  S
C308        C309   1.411       .  A
C309        C310   1.397       .  A
C309        F316   1.357       .  S
C310        C311   1.406       .  A
C310        H315   1.083       .  S
C311        C312   1.411       .  A
C312        F313   1.358       .  S
C317        C318   1.407       .  A
C317        C322   1.399       .  A
C317        H324   1.083       .  S
C318        C319   1.411       .  A
C319        C320   1.397       .  A
C319        F326   1.357       .  S
C320        C321   1.406       .  A
C320        H325   1.083       .  S
C321        C322   1.412       .  A
C322        F323   1.358       .  S
C327        C328   1.407       .  A
C327        C332   1.397       .  A
C327        H334   1.083       .  S
C328        C329   1.411       .  A
C329        C330   1.396       .  A
C329        F336   1.358       .  S
C330        C331   1.406       .  A
C330        H335   1.083       .  S
C331        C332   1.411       .  A
C332        F333   1.358       .  S
C337        C338   1.407       .  A
C337        C342   1.398       .  A
C337        H344   1.083       .  S
C338        C795   1.411   1_554  A
C339        C340   1.397       .  A
C339        C794   1.411       .  A
C339        F346   1.358       .  S
C340        C797   1.407       .  A
C340        H345   1.083       .  S
C341        C661   1.488       .  S
C341        C342   1.411       .  A
C341        C796   1.407   1_554  A
C342        F343   1.357       .  S
C347        C352   1.398       .  A
C347        C804   1.408       .  A
C347        H354   1.083       .  S
C348        C662   1.487       .  S
C348        C349   1.410       .  A
C348        C803   1.407       .  A
C349        C350   1.397       .  A
C349        F356   1.358       .  S
C350        C351   1.408       .  A
C350        H355   1.083       .  S
C351        C808   1.410       .  A
C352        C807   1.411       .  A
C352        F353   1.358       .  S
C357        C358   1.407   1_554  A
C357        C362   1.396       .  A
C357        H364   1.083       .  S
C358        C815   1.410       .  A
C359        C360   1.396       .  A
C359        C814   1.410       .  A
C359        F366   1.357       .  S
C360        C817   1.407       .  A
C360        H365   1.083       .  S
C361        C631   1.485       .  S
C361        C362   1.410   1_556  A
C361        C816   1.407       .  A
C362        F363   1.358       .  S
C367        C368   1.406       .  A
C367        C372   1.397       .  A
C367        H374   1.083       .  S
C368        C825   1.411   1_554  A
C369        C370   1.397       .  A
C369        C824   1.411       .  A
C369        F376   1.358       .  S
C370        C827   1.407       .  A
C370        H375   1.083       .  S
C371        C630   1.487       .  S
C371        C372   1.410       .  A
C371        C826   1.407   1_554  A
C372        F373   1.357       .  S
C377        C378   1.407       .  A
C377        C382   1.399       .  A
C377        H384   1.083       .  S
C378       C1064   1.492       .  S
C378       C1291   1.412   1_565  A
C379        C380   1.398       .  A
C379       C1290   1.411       .  A
C379        F386   1.358       .  S
C380       C1293   1.407       .  A
C380        H385   1.083       .  S
C381        C382   1.412       .  A
C381       C1292   1.407   1_565  A
C382        F383   1.357       .  S
C387        C392   1.398       .  A
C387       C1300   1.406       .  A
C387        H394   1.083       .  S
C388        C389   1.409       .  A
C388       C1299   1.406   1_565  A
C389        C390   1.399       .  A
C389        F396   1.358       .  S
C390        C391   1.406   1_565  A
C390        H395   1.083       .  S
C391       C1063   1.484       .  S
C391       C1304   1.409       .  A
C392       C1303   1.410       .  A
C392        F393   1.357       .  S
C397        C402   1.397       .  A
C397       C1310   1.406       .  A
C397        H404   1.083       .  S
C398       C1033   1.487       .  S
C398        C399   1.410       .  A
C398       C1309   1.407   1_545  A
C399        C400   1.397       .  A
C399        F406   1.358       .  S
C400        C401   1.406       .  A
C400        H405   1.083       .  S
C401       C1314   1.410   1_545  A
C402       C1313   1.410       .  A
C402        F403   1.358       .  S
C407        C412   1.396       .  A
C407       C1320   1.406       .  A
C407        H414   1.083       .  S
C408        C409   1.410       .  A
C408       C1319   1.406   1_565  A
C409        C410   1.398       .  A
C409        F416   1.358       .  S
C410        C411   1.407       .  A
C410        H415   1.083       .  S
C411       C1032   1.487       .  S
C411       C1324   1.410   1_565  A
C412       C1323   1.410       .  A
C412        F413   1.357       .  S
C417        C418   1.406       .  A
C417        C422   1.395       .  A
C417        H424   1.083       .  S
C418       C2243   1.410   1_455  A
C419        C420   1.396       .  A
C419       C2242   1.410       .  A
C419        F426   1.358       .  S
C420       C2245   1.407       .  A
C420        H425   1.083       .  S
C421        C422   1.410       .  A
C421       C2244   1.407   1_455  A
C422        F423   1.358       .  S
C427        C432   1.397       .  A
C427       C2252   1.406       .  A
C427        H434   1.083       .  S
C428        C429   1.409   1_455  A
C428       C2251   1.406       .  A
C429        C430   1.396       .  A
C429        F436   1.358       .  S
C430        C431   1.405   1_655  A
C430        H435   1.083       .  S
C431       C2256   1.410       .  A
C432       C2255   1.410       .  A
C432        F433   1.358       .  S
C437        C442   1.397       .  A
C437       C2262   1.406       .  A
C437        H444   1.083       .  S
C438        C439   1.409       .  A
C438       C2261   1.406   1_655  A
C439        C440   1.397       .  A
C439        F446   1.358       .  S
C440        C441   1.406       .  A
C440        H445   1.083       .  S
C441       C2266   1.409   1_655  A
C442       C2265   1.409       .  A
C442        F443   1.358       .  S
C447        C452   1.397       .  A
C447       C2272   1.407       .  A
C447        H454   1.083       .  S
C448        C449   1.411   1_655  A
C448       C2271   1.407       .  A
C449        C450   1.397       .  A
C449        F456   1.357       .  S
C450        C451   1.406   1_455  A
C450        H455   1.083       .  S
C451       C2276   1.411       .  A
C452       C2275   1.411       .  A
C452        F453   1.358       .  S
O457        C468   1.291       .  A
O457       Eu493   2.457   1_545  S
O458        C469   1.291   1_655  A
O458       Eu492   2.451   1_545  S
O459        C470   1.292       .  A
O459       Eu465   2.457       .  S
O460        C471   1.291       .  A
O460      Eu2289   2.456       .  S
O461        C471   1.292       .  A
O461       Eu495   2.458       .  S
O462        C470   1.290       .  A
O462       Eu494   2.453   1_545  S
O463        C469   1.291       .  A
O464        C468   1.292       .  A
O464       Eu465   2.458       .  S
Eu465      O2284   2.456   1_455  S
Eu465      O2299   2.351   1_455  S
Eu465       O467   2.348       .  S
Eu465      O1834   2.352   1_455  S
O466      Eu1833   2.351       .  S
O466      Eu2316   2.349   1_545  S
O467       Eu493   2.349   1_545  S
O467       Eu494   2.350   1_545  S
C468        C907   1.485   1_455  S
C469        C877   1.483       .  S
C470        C824   1.487       .  S
C471        C807   1.488       .  S
H472        O473   0.965       .  S
O473       Eu492   2.352   1_445  S
H474        O475   0.966       .  S
O475      Eu2289   2.351       .  S
O475      Eu2317   2.353   1_545  S
O475       Eu495   2.353       .  S
O476        C499   1.291       .  A
O476      Eu1404   2.454   1_455  S
O477        C500   1.291       .  A
O477      Eu1405   2.453   1_655  S
O478        C501   1.293       .  A
O479        C502   1.290       .  A
O480        C503   1.292       .  A
O480       Eu495   2.455   1_565  S
O481        C504   1.290   1_565  A
O481       Eu494   2.452       .  S
O482        C505   1.291       .  A
O482       Eu496   2.457   1_455  S
O483        C506   1.292       .  A
O483      Eu2320   2.459       .  S
O484        C505   1.291       .  A
O484      Eu1406   2.452       .  S
O485        C506   1.290       .  A
O485      Eu1407   2.454       .  S
O486        C501   1.291       .  A
O486       Eu492   2.455   1_455  S
O487        C504   1.292       .  A
O487       Eu493   2.458   1_545  S
O488        C503   1.291       .  A
O488      Eu2317   2.454       .  S
O489        C502   1.292       .  A
O489      Eu2316   2.459   1_545  S
O490        C499   1.291       .  A
O491        C500   1.291       .  A
O491       Eu496   2.455       .  S
Eu492      O1388   2.453       .  S
Eu492      O2313   2.459   1_565  S
Eu492      O2290   2.349   1_565  S
Eu492      O3246   2.350       .  S
Eu492      O1410   2.349   1_655  S
Eu493      O1389   2.456   1_455  S
Eu493      O2312   2.454   1_455  S
Eu493      O2299   2.353   1_465  S
Eu493      O3233   2.348   1_455  S
Eu493      O1420   2.353       .  S
Eu494      O1396   2.452       .  S
Eu494      O1420   2.354       .  S
Eu494       O954   2.348       .  S
Eu495      O1397   2.456   1_545  S
Eu495      O1409   2.349   1_545  S
Eu495       O966   2.350   1_545  S
Eu496      O2307   2.459       .  S
Eu496      O2321   2.347       .  S
Eu496       O508   2.351   1_655  S
Eu496      O1878   2.352       .  S
O497      Eu3229   2.348       .  S
O497      Eu1407   2.348       .  S
O497      Eu2320   2.347       .  S
O498      Eu1404   2.348   1_455  S
O498       Eu950   2.348       .  S
C499        C884   1.481       .  S
C500        C894   1.484       .  S
C501        C844   1.489       .  S
C502        C837   1.488   1_545  S
C503        C864   1.486       .  S
C504        C857   1.486       .  S
C505        C814   1.486       .  S
C506        C794   1.488       .  S
H507        O508   0.966       .  S
O508      Eu1405   2.352       .  S
O508      Eu1406   2.354       .  S
H509        O510   0.966       .  S
O510      Eu3228   2.351       .  S
O510       Eu951   2.351   1_556  S
O510      Eu1864   2.352   1_556  S
O511        C522   1.291       .  A
O511       Eu547   2.458   1_455  S
O512        C523   1.292       .  A
O512       Eu546   2.456       .  S
O513        C524   1.291       .  A
O513       Eu519   2.454       .  S
O514        C525   1.291       .  A
O514      Eu2343   2.455       .  S
O515        C525   1.291       .  A
O515       Eu549   2.451       .  S
O516        C524   1.292       .  A
O516       Eu548   2.458       .  S
O517        C523   1.290       .  A
O517       Eu519   2.451   1_655  S
O518        C522   1.292   1_655  A
O518       Eu519   2.458   1_655  S
Eu519      O2338   2.455   1_455  S
Eu519      O2353   2.348   1_455  S
Eu519       O521   2.349       .  S
Eu519      O2344   2.350   1_455  S
Eu519       O527   2.353       .  S
O520      Eu2343   2.350       .  S
O520       Eu549   2.348       .  S
O520      Eu2370   2.348       .  S
O521       Eu547   2.350   1_455  S
O521       Eu548   2.353       .  S
C522        C904   1.485       .  S
C523        C874   1.482   1_655  S
C524        C734   1.488       .  S
C525        C714   1.486       .  S
H526        O527   0.966       .  S
O527       Eu548   2.350       .  S
O527       Eu546   2.350   1_455  S
H528        O529   0.965       .  S
O529      Eu2343   2.348       .  S
O529      Eu2371   2.352       .  S
O529       Eu549   2.352       .  S
O530        C553   1.290       .  A
O530       Eu546   2.452   1_455  S
O531        C554   1.291       .  A
O531       Eu547   2.455       .  S
O532        C555   1.292       .  A
O532       Eu548   2.460       .  S
O533        C556   1.292       .  A
O533       Eu549   2.457       .  S
O534        C557   1.291       .  A
O534       Eu549   2.454       .  S
O535        C558   1.290       .  A
O535       Eu548   2.450       .  S
O536        C559   1.291       .  A
O536       Eu550   2.455   1_455  S
O537        C560   1.292       .  A
O537      Eu2374   2.458       .  S
O538        C559   1.292       .  A
O538       Eu548   2.460       .  S
O539        C560   1.290       .  A
O539       Eu549   2.451       .  S
O540        C555   1.290       .  A
O540       Eu546   2.450   1_455  S
O541        C558   1.293       .  A
O541       Eu547   2.462   1_455  S
O542        C557   1.292       .  A
O542      Eu2371   2.460       .  S
O543        C556   1.290       .  A
O543      Eu2370   2.452       .  S
O544        C553   1.291       .  A
O544       Eu550   2.455   1_455  S
O545        C554   1.291       .  A
O545       Eu550   2.454       .  S
Eu546      O2367   2.452       .  S
Eu546      O2344   2.348       .  S
Eu546      O2388   2.352       .  S
Eu546       O552   2.349   1_655  S
Eu547      O2366   2.460       .  S
Eu547      O2353   2.352       .  S
Eu547      O2375   2.350       .  S
Eu547       O562   2.353   1_655  S
Eu548       O562   2.353       .  S
Eu548       O552   2.346       .  S
Eu549       O551   2.348       .  S
Eu549       O564   2.350       .  S
Eu550      O2361   2.458       .  S
Eu550      O2375   2.348       .  S
Eu550       O562   2.350   1_655  S
Eu550      O2388   2.350       .  S
Eu550       O552   2.349   1_655  S
O551      Eu2371   2.350       .  S
O551      Eu2374   2.348       .  S
C553        C887   1.481       .  S
C554        C897   1.484       .  S
C555        C777   1.487       .  S
C556        C784   1.487       .  S
C557        C754   1.488       .  S
C558        C767   1.488       .  S
C559        C744   1.489       .  S
C560        C724   1.487       .  S
H561        O562   0.965       .  S
H563        O564   0.966       .  S
O564      Eu2370   2.352       .  S
O564      Eu2374   2.350       .  S
O565        C576   1.292       .  A
O565       Eu601   2.458       .  S
O566        C577   1.290       .  A
O566       Eu600   2.453       .  S
O567        C578   1.292       .  A
O567       Eu573   2.462       .  S
O568        C579   1.291       .  A
O568      Eu1485   2.454       .  S
O569        C579   1.291       .  A
O569       Eu603   2.455       .  S
O570        C578   1.291       .  A
O570       Eu602   2.456       .  S
O571        C577   1.292       .  A
O571       Eu573   2.459       .  S
O572        C576   1.290       .  A
O572       Eu573   2.453       .  S
Eu573      O1480   2.455       .  S
Eu573      O1495   2.357       .  S
Eu573       O575   2.348       .  S
Eu573      O1486   2.350       .  S
Eu573       O581   2.351       .  S
O574      Eu1485   2.351       .  S
O574       Eu603   2.349       .  S
O574      Eu1512   2.348       .  S
O575       Eu601   2.351       .  S
O575       Eu602   2.349       .  S
C576       C1779   1.486       .  S
C577       C1766   1.487       .  S
C578        C687   1.477       .  S
C579        C674   1.474       .  S
H580        O581   0.966       .  S
O581       Eu602   2.353       .  S
O581       Eu600   2.354       .  S
H582        O583   0.966       .  S
O583      Eu1485   2.356       .  S
O583      Eu1513   2.349       .  S
O583       Eu603   2.352       .  S
O584        C607   1.292       .  A
O584       Eu600   2.456       .  S
O585        C608   1.291       .  A
O585       Eu601   2.456       .  S
O586        C609   1.291       .  A
O586       Eu602   2.457       .  S
O587        C610   1.290       .  A
O587       Eu603   2.451       .  S
O588        C611   1.289       .  A
O588       Eu603   2.446       .  S
O589        C612   1.292       .  A
O589       Eu602   2.460       .  S
O590        C613   1.292       .  A
O590       Eu604   2.461       .  S
O591        C614   1.292       .  A
O591      Eu1516   2.457   1_545  S
O592        C613   1.292       .  A
O592       Eu602   2.459       .  S
O593        C614   1.291       .  A
O593       Eu603   2.456       .  S
O594        C609   1.292       .  A
O594       Eu600   2.458       .  S
O595        C612   1.290       .  A
O595       Eu601   2.448       .  S
O596        C611   1.292       .  A
O596      Eu1513   2.460       .  S
O597        C610   1.292       .  A
O597      Eu1512   2.462       .  S
O598        C607   1.292       .  A
O598       Eu604   2.459       .  S
O599        C608   1.293       .  A
O599       Eu604   2.464       .  S
Eu600      O1509   2.459       .  S
Eu600      O1486   2.349       .  S
Eu600      O1530   2.352       .  S
Eu600       O606   2.351       .  S
Eu601      O1508   2.461       .  S
Eu601      O1495   2.350       .  S
Eu601      O1517   2.346       .  S
Eu601       O616   2.355       .  S
Eu602       O616   2.352       .  S
Eu602       O606   2.349       .  S
Eu603       O605   2.347       .  S
Eu603       O618   2.352       .  S
Eu604      O1503   2.456       .  S
Eu604      O1517   2.351       .  S
Eu604       O616   2.351       .  S
Eu604      O1530   2.355       .  S
Eu604       O606   2.350       .  S
O605      Eu1513   2.346       .  S
O605      Eu1516   2.352   1_545  S
C607       C1759   1.487       .  S
C608       C1746   1.491       .  S
C609        C747   1.489       .  S
C610        C737   1.488       .  S
C611        C717   1.486       .  S
C612        C727   1.487       .  S
C613        C694   1.486       .  S
C614        C707   1.488       .  S
H615        O616   0.966       .  S
H617        O618   0.966       .  S
O618      Eu1512   2.352       .  S
O618      Eu1516   2.354   1_545  S
O619        C630   1.291       .  A
O619       Eu655   2.454       .  S
O620        C631   1.290   1_554  A
O620       Eu654   2.452       .  S
O621        C632   1.290       .  A
O622        C633   1.292       .  A
O622       Eu627   2.457   1_556  S
O623        C633   1.290       .  A
O623       Eu657   2.452       .  S
O624        C632   1.293       .  A
O624       Eu656   2.463       .  S
O625        C631   1.291       .  A
O625       Eu627   2.451   1_556  S
O626        C630   1.291       .  A
O626       Eu627   2.457       .  S
Eu627       O637   2.351   1_554  S
Eu627       O628   2.348   1_554  S
O628       Eu657   2.347       .  S
O628       Eu654   2.351   1_556  S
O629       Eu656   2.351       .  S
C632        C764   1.488       .  S
C633        C774   1.487       .  S
H634        O635   0.966       .  S
O635       Eu656   2.352       .  S
H636        O637   0.966       .  S
O637       Eu655   2.353   1_556  S
O637       Eu657   2.354       .  S
O638        C661   1.292       .  A
O638       Eu654   2.457       .  S
O639        C662   1.291       .  A
O639       Eu655   2.457   1_556  S
O640        C663   1.291       .  A
O640       Eu656   2.458       .  S
O641        C664   1.292       .  A
O641       Eu657   2.461       .  S
O642        C665   1.293       .  A
O642       Eu657   2.462       .  S
O643        C666   1.291       .  A
O643       Eu656   2.456       .  S
O644        C667   1.290       .  A
O645        C668   1.292       .  A
O645       Eu658   2.458       .  S
O646        C667   1.293       .  A
O646       Eu656   2.461       .  S
O647        C668   1.290       .  A
O647       Eu657   2.451       .  S
O648        C663   1.291       .  A
O649        C666   1.290       .  A
O650        C665   1.290       .  A
O650       Eu655   2.451   1_556  S
O651        C664   1.292       .  A
O651       Eu654   2.460   1_556  S
O652        C661   1.291       .  A
O652       Eu658   2.456   1_554  S
O653        C662   1.291       .  A
O653       Eu658   2.454       .  S
Eu654       O672   2.349   1_554  S
Eu655       O659   2.349   1_554  S
Eu656       O670   2.355       .  S
Eu656       O660   2.351       .  S
Eu657       O659   2.348       .  S
Eu657       O672   2.353       .  S
Eu658       O659   2.347       .  S
Eu658       O672   2.350       .  S
C663        C684   1.476       .  S
C664        C697   1.486       .  S
C665        C704   1.488       .  S
C666        C677   1.475       .  S
C667        C757   1.488       .  S
C668        C787   1.486       .  S
H669        O670   0.966       .  S
H671        O672   0.965       .  S
C673        C674   1.404       .  A
C673        C678   1.397       .  A
C673        H680   1.084       .  S
C674        C675   1.407       .  A
C675        C676   1.397       .  A
C675        F682   1.358       .  S
C676        C677   1.404       .  A
C676        H681   1.084       .  S
C677        C678   1.407       .  A
C678        F679   1.358       .  S
C683        C684   1.404       .  A
C683        C688   1.399       .  A
C683        H690   1.084       .  S
C684        C685   1.407       .  A
C685        C686   1.398       .  A
C685        F692   1.358       .  S
C686        C687   1.405       .  A
C686        H691   1.084       .  S
C687        C688   1.407       .  A
C688        F689   1.358       .  S
C693        C694   1.407       .  A
C693        C698   1.400       .  A
C693        H700   1.083       .  S
C694        C695   1.410       .  A
C695        C696   1.398       .  A
C695        F702   1.358       .  S
C696        C697   1.406       .  A
C696        H701   1.083       .  S
C697        C698   1.410       .  A
C698        F699   1.358       .  S
C703        C704   1.406       .  A
C703        C708   1.397       .  A
C703        H710   1.083       .  S
C704        C705   1.411       .  A
C705        C706   1.397       .  A
C705        F712   1.358       .  S
C706        C707   1.407       .  A
C706        H711   1.083       .  S
C707        C708   1.411       .  A
C708        F709   1.357       .  S
C713        C714   1.407       .  A
C713        C718   1.397       .  A
C713        H720   1.083       .  S
C714        C715   1.410       .  A
C715        C716   1.396       .  A
C715        F722   1.357       .  S
C716        C717   1.406       .  A
C716        H721   1.083       .  S
C717        C718   1.411       .  A
C718        F719   1.358       .  S
C723        C724   1.406       .  A
C723        C728   1.397       .  A
C723        H730   1.083       .  S
C724        C725   1.411       .  A
C725        C726   1.397       .  A
C725        F732   1.357       .  S
C726        C727   1.406       .  A
C726        H731   1.083       .  S
C727        C728   1.411       .  A
C728        F729   1.358       .  S
C733        C734   1.407       .  A
C733        C738   1.398       .  A
C733        H740   1.083       .  S
C734        C735   1.411       .  A
C735        C736   1.397       .  A
C735        F742   1.357       .  S
C736        C737   1.406       .  A
C736        H741   1.083       .  S
C737        C738   1.411       .  A
C738        F739   1.358       .  S
C743        C744   1.406       .  A
C743        C748   1.397       .  A
C743        H750   1.083       .  S
C744        C745   1.411       .  A
C745        C746   1.398       .  A
C745        F752   1.358       .  S
C746        C747   1.407       .  A
C746        H751   1.083       .  S
C747        C748   1.411       .  A
C748        F749   1.357       .  S
C753        C754   1.407       .  A
C753        C758   1.398       .  A
C753        H760   1.083       .  S
C754        C755   1.411       .  A
C755        C756   1.397       .  A
C755        F762   1.357       .  S
C756        C757   1.406       .  A
C756        H761   1.083       .  S
C757        C758   1.411       .  A
C758        F759   1.358       .  S
C763        C764   1.407       .  A
C763        C768   1.398       .  A
C763        H770   1.083       .  S
C764        C765   1.411       .  A
C765        C766   1.397       .  A
C765        F772   1.357       .  S
C766        C767   1.406       .  A
C766        H771   1.083       .  S
C767        C768   1.411       .  A
C768        F769   1.358       .  S
C773        C774   1.407       .  A
C773        C778   1.398       .  A
C773        H780   1.083       .  S
C774        C775   1.410       .  A
C775        C776   1.396       .  A
C775        F782   1.357       .  S
C776        C777   1.406       .  A
C776        H781   1.083       .  S
C777        C778   1.411       .  A
C778        F779   1.358       .  S
C783        C784   1.407       .  A
C783        C788   1.397       .  A
C783        H790   1.083       .  S
C784        C785   1.411       .  A
C785        C786   1.396       .  A
C785        F792   1.357       .  S
C786        C787   1.406       .  A
C786        H791   1.083       .  S
C787        C788   1.411       .  A
C788        F789   1.358       .  S
C793        C794   1.407       .  A
C793        C798   1.397       .  A
C793        H800   1.083       .  S
C795        C796   1.398       .  A
C795        F802   1.358       .  S
C796        H801   1.083       .  S
C797        C798   1.410       .  A
C798        F799   1.357       .  S
C803        C808   1.397       .  A
C803        H810   1.083   1_556  S
C804        C805   1.410       .  A
C805        C806   1.398       .  A
C805        F812   1.358       .  S
C806        C807   1.407       .  A
C806        H811   1.083       .  S
C808        F809   1.358   1_556  S
C813        C814   1.407       .  A
C813        C818   1.396       .  A
C813        H820   1.083       .  S
C815        C816   1.396       .  A
C815        F822   1.358       .  S
C816        H821   1.083       .  S
C817        C818   1.410       .  A
C818        F819   1.358       .  S
C823        C824   1.407       .  A
C823        C828   1.397       .  A
C823        H830   1.083       .  S
C825        C826   1.397       .  A
C825        F832   1.358       .  S
C826        H831   1.083       .  S
C827        C828   1.410       .  A
C828        F829   1.357       .  S
C833        C834   1.407       .  A
C833        C838   1.398       .  A
C833        H840   1.083       .  S
C834       C1520   1.488       .  S
C834       C1747   1.411       .  A
C835       C1746   1.412       .  A
C835        C836   1.399       .  A
C835        F842   1.358       .  S
C836       C1749   1.407       .  A
C836        H841   1.083       .  S
C837       C1748   1.407       .  A
C837        C838   1.411       .  A
C838        F839   1.358       .  S
C843       C1756   1.406       .  A
C843        C848   1.398       .  A
C843        H850   1.083       .  S
C844       C1755   1.406   1_565  A
C844        C845   1.411       .  A
C845        C846   1.399       .  A
C845        F852   1.358       .  S
C846        C847   1.407   1_565  A
C846        H851   1.083       .  S
C847       C1519   1.488       .  S
C847       C1760   1.410       .  A
C848       C1759   1.410       .  A
C848        F849   1.358       .  S
C853       C1766   1.406       .  A
C853        C858   1.397       .  A
C853        H860   1.083       .  S
C854       C1489   1.486       .  S
C854       C1765   1.406   1_545  A
C854        C855   1.411       .  A
C855        C856   1.397       .  A
C855        F862   1.358       .  S
C856        C857   1.406       .  A
C856        H861   1.083       .  S
C857       C1770   1.411   1_545  A
C858       C1769   1.411       .  A
C858        F859   1.358       .  S
C863       C1776   1.406       .  A
C863        C868   1.396       .  A
C863        H870   1.083       .  S
C864       C1775   1.406   1_565  A
C864        C865   1.410       .  A
C865        C866   1.398       .  A
C865        F872   1.358       .  S
C866        C867   1.407       .  A
C866        H871   1.083       .  S
C867       C1488   1.486       .  S
C867       C1780   1.410   1_565  A
C868       C1779   1.410       .  A
C868        F869   1.358       .  S
C873        C874   1.406       .  A
C873        C878   1.396       .  A
C873        H880   1.083       .  S
C874       C2699   1.409   1_455  A
C875       C2698   1.409       .  A
C875        C876   1.397       .  A
C875        F882   1.358       .  S
C876       C2701   1.406       .  A
C876        H881   1.083       .  S
C877       C2700   1.406   1_455  A
C877        C878   1.409       .  A
C878        F879   1.358       .  S
C883       C2708   1.406       .  A
C883        C888   1.398       .  A
C883        H890   1.083       .  S
C884       C2707   1.406       .  A
C884        C885   1.408   1_455  A
C885        C886   1.395       .  A
C885        F892   1.358       .  S
C886        C887   1.405   1_655  A
C886        H891   1.083       .  S
C887       C2712   1.409       .  A
C888       C2711   1.409       .  A
C888        F889   1.358       .  S
C893       C2718   1.406       .  A
C893        C898   1.397       .  A
C893        H900   1.083       .  S
C894       C2717   1.406   1_655  A
C894        C895   1.409       .  A
C895        C896   1.397       .  A
C895        F902   1.358       .  S
C896        C897   1.406       .  A
C896        H901   1.083       .  S
C897       C2722   1.409   1_655  A
C898       C2721   1.409       .  A
C898        F899   1.358       .  S
C903       C2728   1.406       .  A
C903        C908   1.398       .  A
C903        H910   1.083       .  S
C904       C2727   1.406   1_455  A
C904        C905   1.409       .  A
C905        C906   1.398       .  A
C905        F912   1.358       .  S
C906        C907   1.406   1_455  A
C906        H911   1.083       .  S
C907       C2732   1.409       .  A
C908       C2731   1.409       .  A
C908        F909   1.358       .  S
O913        C924   1.291       .  A
O913       Eu949   2.454       .  S
O914        C925   1.291       .  A
O914       Eu948   2.454       .  S
O915        C926   1.292       .  A
O915       Eu921   2.457       .  S
O916        C927   1.291       .  A
O916      Eu2745   2.459   1_556  S
O917        C927   1.292       .  A
O917       Eu951   2.459   1_556  S
O918        C926   1.290       .  A
O918       Eu950   2.454   1_554  S
O919        C925   1.290   1_455  A
O919      Eu1377   2.452       .  S
O920        C924   1.292       .  A
O920       Eu921   2.457       .  S
Eu921      O2740   2.459   1_454  S
Eu921      O1375   2.453   1_554  S
Eu921      O2755   2.351   1_455  S
Eu921       O923   2.349       .  S
Eu921      O3202   2.351   1_454  S
Eu921      O1385   2.351   1_554  S
O922      Eu3201   2.351       .  S
O922      Eu1407   2.347       .  S
O922      Eu2772   2.348       .  S
O923       Eu949   2.349       .  S
O923       Eu950   2.351   1_554  S
C924       C1363   1.485   1_455  S
C925       C1333   1.485       .  S
C926       C1280   1.487       .  S
C927       C1263   1.488       .  S
H928        O929   0.966       .  S
O929      Eu1377   2.351       .  S
O929      Eu1406   2.349       .  S
O929       Eu948   2.353   1_455  S
H930        O931   0.966       .  S
O931      Eu2745   2.351       .  S
O931      Eu2773   2.353       .  S
O931       Eu951   2.353       .  S
O932        C955   1.290       .  A
O933        C956   1.291       .  A
O934        C957   1.293       .  A
O934      Eu1406   2.462       .  S
O935        C958   1.291       .  A
O935      Eu1407   2.457       .  S
O936        C959   1.292       .  A
O936       Eu951   2.455       .  S
O937        C960   1.290       .  A
O937       Eu950   2.452   1_554  S
O938        C961   1.291       .  A
O938       Eu952   2.456   1_455  S
O939        C962   1.292       .  A
O939      Eu2776   2.459   1_554  S
O940        C961   1.291       .  A
O941        C962   1.291       .  A
O942        C957   1.291       .  A
O942       Eu948   2.456   1_455  S
O943        C960   1.292       .  A
O943       Eu949   2.457       .  S
O944        C959   1.291       .  A
O944      Eu2773   2.454       .  S
O945        C958   1.292       .  A
O945      Eu2772   2.461       .  S
O946        C955   1.291       .  A
O946      Eu1408   2.453   1_455  S
O947        C956   1.290       .  A
O947       Eu952   2.452   1_554  S
Eu948      O2769   2.461       .  S
Eu948      O2746   2.348       .  S
Eu948      O1878   2.351       .  S
Eu949      O2768   2.454   1_455  S
Eu949      O2755   2.353   1_455  S
Eu949      O1865   2.348   1_455  S
Eu950      O1390   2.462       .  S
Eu950      O1385   2.347       .  S
Eu951      O1391   2.458   1_554  S
Eu951      O1378   2.347   1_554  S
Eu952      O2763   2.459   1_556  S
Eu952      O1402   2.450       .  S
Eu952      O2777   2.346   1_556  S
Eu952       O964   2.351   1_656  S
Eu952      O3246   2.352       .  S
Eu952      O1410   2.350   1_655  S
O953      Eu1861   2.346       .  S
O953      Eu2776   2.346   1_554  S
O954      Eu1408   2.350   1_455  S
C955       C1340   1.481       .  S
C956       C1350   1.485       .  S
C957       C1300   1.488       .  S
C958       C1293   1.490       .  S
C959       C1320   1.485       .  S
C960       C1313   1.485       .  S
C961       C1270   1.486       .  S
C962       C1250   1.487       .  S
H963        O964   0.966       .  S
H965        O966   0.965       .  S
O966      Eu1860   2.350       .  S
O966      Eu3232   2.352       .  S
O967        C978   1.291       .  A
O967      Eu1003   2.456   1_455  S
O968        C979   1.292       .  A
O968      Eu1002   2.458       .  S
O969        C980   1.290       .  A
O969       Eu975   2.454   1_455  S
O970        C981   1.291       .  A
O970      Eu2799   2.456       .  S
O971        C981   1.291       .  A
O971      Eu1005   2.451       .  S
O972        C980   1.292       .  A
O972      Eu1004   2.460       .  S
O973        C979   1.290       .  A
O973       Eu975   2.450       .  S
O974        C978   1.292   1_655  A
O974       Eu975   2.458       .  S
Eu975      O2794   2.456       .  S
Eu975      O2809   2.349       .  S
Eu975       O977   2.348   1_655  S
Eu975      O2800   2.349       .  S
Eu975       O983   2.355   1_655  S
O976      Eu2799   2.349       .  S
O976      Eu1005   2.348       .  S
O976      Eu2826   2.347       .  S
O977      Eu1003   2.350   1_455  S
O977      Eu1004   2.353       .  S
C978       C1360   1.485       .  S
C979       C1330   1.485       .  S
C980       C1190   1.488       .  S
C981       C1170   1.487       .  S
H982        O983   0.966       .  S
O983      Eu1004   2.351       .  S
O983      Eu1002   2.350   1_455  S
H984        O985   0.966       .  S
O985      Eu2799   2.349       .  S
O985      Eu2827   2.352       .  S
O985      Eu1005   2.352       .  S
O986       C1009   1.290       .  A
O986      Eu1002   2.451   1_455  S
O987       C1010   1.291       .  A
O987      Eu1003   2.454       .  S
O988       C1011   1.293       .  A
O988      Eu1004   2.464       .  S
O989       C1012   1.292       .  A
O989      Eu1005   2.456       .  S
O990       C1013   1.291       .  A
O990      Eu1005   2.454       .  S
O991       C1014   1.290       .  A
O991      Eu1004   2.450       .  S
O992       C1015   1.291       .  A
O992      Eu1006   2.455   1_455  S
O993       C1016   1.292       .  A
O993      Eu2830   2.457       .  S
O994       C1015   1.292       .  A
O994      Eu1004   2.460       .  S
O995       C1016   1.290       .  A
O995      Eu1005   2.451       .  S
O996       C1011   1.290       .  A
O996      Eu1002   2.453   1_455  S
O997       C1014   1.293       .  A
O997      Eu1003   2.463   1_455  S
O998       C1013   1.293       .  A
O998      Eu2827   2.462       .  S
O999       C1012   1.290       .  A
O999      Eu2826   2.451       .  S
O1000      C1009   1.292   1_655  A
O1000     Eu1006   2.455       .  S
O1001      C1010   1.291       .  A
O1001     Eu1006   2.455       .  S
Eu1002     O2823   2.451       .  S
Eu1002     O2800   2.347       .  S
Eu1002     O2844   2.353       .  S
Eu1002     O1008   2.348   1_655  S
Eu1003     O2822   2.462       .  S
Eu1003     O2809   2.352       .  S
Eu1003     O2831   2.350       .  S
Eu1003     O1018   2.353   1_655  S
Eu1004     O1018   2.354       .  S
Eu1004     O1008   2.346       .  S
Eu1005     O1007   2.348       .  S
Eu1005     O1020   2.350       .  S
Eu1006     O2817   2.457       .  S
Eu1006     O2831   2.348       .  S
Eu1006     O1018   2.350   1_655  S
Eu1006     O2844   2.350       .  S
Eu1006     O1008   2.351   1_655  S
O1007     Eu2827   2.350       .  S
O1007     Eu2830   2.348       .  S
C1009      C1343   1.481       .  S
C1010      C1353   1.485       .  S
C1011      C1233   1.490       .  S
C1012      C1240   1.486       .  S
C1013      C1210   1.489       .  S
C1014      C1223   1.488       .  S
C1015      C1200   1.489       .  S
C1016      C1180   1.487       .  S
H1017      O1018   0.965       .  S
H1019      O1020   0.966       .  S
O1020     Eu2826   2.353       .  S
O1020     Eu2830   2.350       .  S
O1021      C1032   1.292       .  A
O1021     Eu1057   2.456   1_565  S
O1022      C1033   1.291       .  A
O1022     Eu1056   2.455       .  S
O1023      C1034   1.291       .  A
O1023     Eu1029   2.459   1_565  S
O1024      C1035   1.291       .  A
O1025      C1035   1.291       .  A
O1025     Eu1059   2.455       .  S
O1026      C1034   1.291       .  A
O1026     Eu1058   2.458       .  S
O1027      C1033   1.292       .  A
O1027     Eu1029   2.458       .  S
O1028      C1032   1.291       .  A
O1028     Eu1029   2.455   1_565  S
Eu1029     O1031   2.347   1_545  S
Eu1029     O1037   2.352   1_545  S
O1030     Eu1059   2.349       .  S
O1031     Eu1057   2.350   1_565  S
O1031     Eu1058   2.349       .  S
C1034      C1143   1.476       .  S
C1035      C1130   1.475       .  S
H1036      O1037   0.966       .  S
O1037     Eu1058   2.353       .  S
O1037     Eu1056   2.354   1_565  S
H1038      O1039   0.966       .  S
O1039     Eu1059   2.352       .  S
O1040      C1063   1.292       .  A
O1040     Eu1056   2.458       .  S
O1041      C1064   1.291       .  A
O1041     Eu1057   2.457   1_565  S
O1042      C1065   1.291       .  A
O1042     Eu1058   2.456       .  S
O1043      C1066   1.290       .  A
O1043     Eu1059   2.451       .  S
O1044      C1067   1.289       .  A
O1044     Eu1059   2.447       .  S
O1045      C1068   1.292       .  A
O1045     Eu1058   2.460       .  S
O1046      C1069   1.292       .  A
O1046     Eu1060   2.459   1_565  S
O1047      C1070   1.292       .  A
O1048      C1069   1.292       .  A
O1048     Eu1058   2.460       .  S
O1049      C1070   1.291       .  A
O1049     Eu1059   2.455       .  S
O1050      C1065   1.292       .  A
O1050     Eu1056   2.458   1_565  S
O1051      C1068   1.289       .  A
O1051     Eu1057   2.447   1_565  S
O1052      C1067   1.292       .  A
O1053      C1066   1.293       .  A
O1054      C1063   1.292       .  A
O1054     Eu1060   2.460       .  S
O1055      C1064   1.293       .  A
O1055     Eu1060   2.465   1_565  S
Eu1056     O1062   2.350   1_545  S
Eu1057     O1072   2.354   1_545  S
Eu1058     O1072   2.352       .  S
Eu1058     O1062   2.349       .  S
Eu1059     O1061   2.348       .  S
Eu1059     O1074   2.352       .  S
Eu1060     O1072   2.351   1_545  S
Eu1060     O1062   2.351   1_545  S
C1065      C1203   1.489       .  S
C1066      C1193   1.488       .  S
C1067      C1173   1.487       .  S
C1068      C1183   1.487       .  S
C1069      C1150   1.490       .  S
C1070      C1163   1.488       .  S
H1071      O1072   0.966       .  S
H1073      O1074   0.966       .  S
O1075      C1086   1.291       .  A
O1075     Eu1111   2.455       .  S
O1076      C1087   1.291       .  A
O1076     Eu1110   2.454       .  S
O1077      C1088   1.290       .  A
O1077     Eu1539   2.453       .  S
O1078      C1089   1.292       .  A
O1078     Eu1083   2.461       .  S
O1079      C1089   1.291       .  A
O1079     Eu1113   2.454       .  S
O1080      C1088   1.293       .  A
O1080     Eu1112   2.464       .  S
O1081      C1087   1.291       .  A
O1081     Eu1083   2.451       .  S
O1082      C1086   1.291       .  A
O1082     Eu1083   2.458       .  S
Eu1083     O1533   2.451       .  S
Eu1083     O1093   2.350       .  S
Eu1083     O1541   2.350       .  S
Eu1083     O1084   2.346       .  S
Eu1083     O1547   2.355       .  S
O1084     Eu1113   2.345       .  S
O1084     Eu1110   2.350       .  S
O1085     Eu1539   2.350       .  S
O1085     Eu1567   2.351       .  S
O1085     Eu1112   2.351       .  S
C1086      C1739   1.488       .  S
C1087      C1729   1.486       .  S
C1088      C1220   1.489       .  S
C1089      C1230   1.490       .  S
H1090      O1091   0.966       .  S
O1091     Eu1539   2.352       .  S
O1091     Eu1112   2.352       .  S
O1091     Eu1566   2.353       .  S
H1092      O1093   0.966       .  S
O1093     Eu1111   2.354       .  S
O1093     Eu1113   2.354       .  S
O1094      C1117   1.292       .  A
O1094     Eu1110   2.456       .  S
O1095      C1118   1.291       .  A
O1095     Eu1111   2.458       .  S
O1096      C1119   1.291       .  A
O1096     Eu1112   2.458       .  S
O1097      C1120   1.292       .  A
O1097     Eu1113   2.461       .  S
O1098      C1121   1.293       .  A
O1098     Eu1113   2.462       .  S
O1099      C1122   1.291       .  A
O1099     Eu1112   2.458       .  S
O1100      C1123   1.291       .  A
O1100     Eu1570   2.454   1_554  S
O1101      C1124   1.291       .  A
O1101     Eu1114   2.455       .  S
O1102      C1123   1.292       .  A
O1102     Eu1112   2.460       .  S
O1103      C1124   1.290       .  A
O1103     Eu1113   2.452       .  S
O1104      C1119   1.291       .  A
O1104     Eu1566   2.458       .  S
O1105      C1122   1.291       .  A
O1105     Eu1567   2.455       .  S
O1106      C1121   1.290       .  A
O1106     Eu1111   2.451       .  S
O1107      C1120   1.291       .  A
O1107     Eu1110   2.459       .  S
O1108      C1117   1.291       .  A
O1108     Eu1114   2.457       .  S
O1109      C1118   1.291       .  A
O1109     Eu1114   2.453       .  S
Eu1110     O1560   2.459       .  S
Eu1110     O1547   2.352       .  S
Eu1110     O1128   2.350       .  S
Eu1110     O1572   2.349       .  S
Eu1111     O1561   2.456       .  S
Eu1111     O1541   2.349       .  S
Eu1111     O1115   2.350       .  S
Eu1111     O1582   2.351       .  S
Eu1112     O1126   2.355       .  S
Eu1112     O1116   2.351       .  S
Eu1113     O1115   2.349       .  S
Eu1113     O1128   2.353       .  S
Eu1114     O1556   2.452       .  S
Eu1114     O1115   2.348       .  S
Eu1114     O1582   2.353       .  S
Eu1114     O1128   2.350       .  S
Eu1114     O1572   2.349       .  S
O1116     Eu1566   2.351       .  S
O1116     Eu1570   2.351   1_554  S
C1117      C1709   1.488       .  S
C1118      C1716   1.487       .  S
C1119      C1140   1.476       .  S
C1120      C1153   1.490       .  S
C1121      C1160   1.488       .  S
C1122      C1133   1.476       .  S
C1123      C1213   1.488       .  S
C1124      C1243   1.486       .  S
H1125      O1126   0.966       .  S
O1126     Eu1567   2.350       .  S
O1126     Eu1570   2.354   1_554  S
H1127      O1128   0.965       .  S
C1129      C1130   1.404       .  A
C1129      C1134   1.398       .  A
C1129      H1136   1.084       .  S
C1130      C1131   1.407       .  A
C1131      C1132   1.398       .  A
C1131      F1138   1.358       .  S
C1132      C1133   1.404       .  A
C1132      H1137   1.084       .  S
C1133      C1134   1.407       .  A
C1134      F1135   1.358       .  S
C1139      C1140   1.404       .  A
C1139      C1144   1.399       .  A
C1139      H1146   1.084       .  S
C1140      C1141   1.407       .  A
C1141      C1142   1.398       .  A
C1141      F1148   1.358       .  S
C1142      C1143   1.404       .  A
C1142      H1147   1.084       .  S
C1143      C1144   1.407       .  A
C1144      F1145   1.358       .  S
C1149      C1150   1.408       .  A
C1149      C1154   1.399       .  A
C1149      H1156   1.083       .  S
C1150      C1151   1.411       .  A
C1151      C1152   1.398       .  A
C1151      F1158   1.357       .  S
C1152      C1153   1.407       .  A
C1152      H1157   1.083       .  S
C1153      C1154   1.411       .  A
C1154      F1155   1.358       .  S
C1159      C1160   1.406       .  A
C1159      C1164   1.397       .  A
C1159      H1166   1.083       .  S
C1160      C1161   1.411       .  A
C1161      C1162   1.397       .  A
C1161      F1168   1.358       .  S
C1162      C1163   1.407       .  A
C1162      H1167   1.083       .  S
C1163      C1164   1.411       .  A
C1164      F1165   1.357       .  S
C1169      C1170   1.407       .  A
C1169      C1174   1.397       .  A
C1169      H1176   1.083       .  S
C1170      C1171   1.410       .  A
C1171      C1172   1.396       .  A
C1171      F1178   1.357       .  S
C1172      C1173   1.406       .  A
C1172      H1177   1.083       .  S
C1173      C1174   1.411       .  A
C1174      F1175   1.358       .  S
C1179      C1180   1.406       .  A
C1179      C1184   1.396       .  A
C1179      H1186   1.083       .  S
C1180      C1181   1.411       .  A
C1181      C1182   1.397       .  A
C1181      F1188   1.357       .  S
C1182      C1183   1.406       .  A
C1182      H1187   1.083       .  S
C1183      C1184   1.411       .  A
C1184      F1185   1.358       .  S
C1189      C1190   1.407       .  A
C1189      C1194   1.398       .  A
C1189      H1196   1.083       .  S
C1190      C1191   1.411       .  A
C1191      C1192   1.397       .  A
C1191      F1198   1.357       .  S
C1192      C1193   1.406       .  A
C1192      H1197   1.083       .  S
C1193      C1194   1.411       .  A
C1194      F1195   1.358       .  S
C1199      C1200   1.406       .  A
C1199      C1204   1.397       .  A
C1199      H1206   1.083       .  S
C1200      C1201   1.411       .  A
C1201      C1202   1.398       .  A
C1201      F1208   1.358       .  S
C1202      C1203   1.407       .  A
C1202      H1207   1.083       .  S
C1203      C1204   1.411       .  A
C1204      F1205   1.357       .  S
C1209      C1210   1.407       .  A
C1209      C1214   1.398       .  A
C1209      H1216   1.083       .  S
C1210      C1211   1.411       .  A
C1211      C1212   1.397       .  A
C1211      F1218   1.358       .  S
C1212      C1213   1.406       .  A
C1212      H1217   1.083       .  S
C1213      C1214   1.411       .  A
C1214      F1215   1.358       .  S
C1219      C1220   1.407       .  A
C1219      C1224   1.398       .  A
C1219      H1226   1.083       .  S
C1220      C1221   1.411       .  A
C1221      C1222   1.397       .  A
C1221      F1228   1.357       .  S
C1222      C1223   1.406       .  A
C1222      H1227   1.083       .  S
C1223      C1224   1.412       .  A
C1224      F1225   1.358       .  S
C1229      C1230   1.407       .  A
C1229      C1234   1.399       .  A
C1229      H1236   1.083       .  S
C1230      C1231   1.411       .  A
C1231      C1232   1.397       .  A
C1231      F1238   1.357       .  S
C1232      C1233   1.406       .  A
C1232      H1237   1.083       .  S
C1233      C1234   1.412       .  A
C1234      F1235   1.358       .  S
C1239      C1240   1.407       .  A
C1239      C1244   1.397       .  A
C1239      H1246   1.083       .  S
C1240      C1241   1.410       .  A
C1241      C1242   1.396       .  A
C1241      F1248   1.358       .  S
C1242      C1243   1.406       .  A
C1242      H1247   1.083       .  S
C1243      C1244   1.410       .  A
C1244      F1245   1.358       .  S
C1249      C1250   1.407       .  A
C1249      C1254   1.398       .  A
C1249      H1256   1.083       .  S
C1250      C1707   1.411   1_554  A
C1251      C1706   1.411       .  A
C1251      C1252   1.398       .  A
C1251      F1258   1.358       .  S
C1252      C1709   1.407       .  A
C1252      H1257   1.083       .  S
C1253      C1573   1.488       .  S
C1253      C1708   1.407   1_554  A
C1253      C1254   1.410       .  A
C1254      F1255   1.357       .  S
C1259      C1716   1.407       .  A
C1259      C1264   1.397       .  A
C1259      H1266   1.083       .  S
C1260      C1574   1.488       .  S
C1260      C1715   1.407   1_556  A
C1260      C1261   1.410       .  A
C1261      C1262   1.399       .  A
C1261      F1268   1.358       .  S
C1262      C1263   1.408       .  A
C1262      H1267   1.083       .  S
C1263      C1720   1.410   1_556  A
C1264      C1719   1.410       .  A
C1264      F1265   1.358       .  S
C1269      C1270   1.407   1_554  A
C1269      C1274   1.396       .  A
C1269      H1276   1.083       .  S
C1270      C1727   1.410       .  A
C1271      C1726   1.410       .  A
C1271      C1272   1.397       .  A
C1271      F1278   1.358       .  S
C1272      C1729   1.407       .  A
C1272      H1277   1.083       .  S
C1273      C1543   1.485       .  S
C1273      C1728   1.407       .  A
C1273      C1274   1.410   1_556  A
C1274      F1275   1.358       .  S
C1279      C1280   1.406   1_556  A
C1279      C1284   1.397       .  A
C1279      H1286   1.083       .  S
C1280      C1737   1.411       .  A
C1281      C1736   1.411       .  A
C1281      C1282   1.398       .  A
C1281      F1288   1.358       .  S
C1282      C1739   1.407       .  A
C1282      H1287   1.083       .  S
C1283      C1542   1.487       .  S
C1283      C1738   1.407       .  A
C1283      C1284   1.410   1_554  A
C1284      F1285   1.357       .  S
C1289      C1290   1.407       .  A
C1289      C1294   1.398       .  A
C1289      H1296   1.083       .  S
C1291      C1292   1.399       .  A
C1291      F1298   1.358       .  S
C1292      H1297   1.083       .  S
C1293      C1294   1.411       .  A
C1294      F1295   1.357       .  S
C1299      C1304   1.398       .  A
C1299      H1306   1.083       .  S
C1300      C1301   1.411       .  A
C1301      C1302   1.399       .  A
C1301      F1308   1.358       .  S
C1302      C1303   1.407       .  A
C1302      H1307   1.083       .  S
C1304      F1305   1.358       .  S
C1309      C1314   1.397       .  A
C1309      H1316   1.083       .  S
C1310      C1311   1.410       .  A
C1311      C1312   1.396       .  A
C1311      F1318   1.358       .  S
C1312      C1313   1.406       .  A
C1312      H1317   1.083       .  S
C1314      F1315   1.358       .  S
C1319      C1324   1.396       .  A
C1319      H1326   1.083       .  S
C1320      C1321   1.410       .  A
C1321      C1322   1.398       .  A
C1321      F1328   1.358       .  S
C1322      C1323   1.407       .  A
C1322      H1327   1.083       .  S
C1324      F1325   1.357       .  S
C1329      C1330   1.406   1_455  A
C1329      C1334   1.396       .  A
C1329      H1336   1.083       .  S
C1330      C3155   1.410       .  A
C1331      C3154   1.410       .  A
C1331      C1332   1.397       .  A
C1331      F1338   1.358       .  S
C1332      C3157   1.407       .  A
C1332      H1337   1.083       .  S
C1333      C3156   1.407       .  A
C1333      C1334   1.410   1_655  A
C1334      F1335   1.358       .  S
C1339      C3164   1.406       .  A
C1339      C1344   1.397       .  A
C1339      H1346   1.083       .  S
C1340      C3163   1.406       .  A
C1340      C1341   1.409   1_455  A
C1341      C1342   1.396       .  A
C1341      F1348   1.358       .  S
C1342      C1343   1.405   1_655  A
C1342      H1347   1.083       .  S
C1343      C3168   1.409       .  A
C1344      C3167   1.409       .  A
C1344      F1345   1.358       .  S
C1349      C3174   1.406       .  A
C1349      C1354   1.397       .  A
C1349      H1356   1.083       .  S
C1350      C3173   1.406   1_655  A
C1350      C1351   1.410       .  A
C1351      C1352   1.397       .  A
C1351      F1358   1.358       .  S
C1352      C1353   1.406       .  A
C1352      H1357   1.083       .  S
C1353      C3178   1.410   1_655  A
C1354      C3177   1.410       .  A
C1354      F1355   1.358       .  S
C1359      C3184   1.406       .  A
C1359      C1364   1.397       .  A
C1359      H1366   1.083       .  S
C1360      C3183   1.406   1_455  A
C1360      C1361   1.410       .  A
C1361      C1362   1.397       .  A
C1361      F1368   1.358       .  S
C1362      C1363   1.406   1_455  A
C1362      H1367   1.083       .  S
C1363      C3188   1.410       .  A
C1364      C3187   1.410       .  A
C1364      F1365   1.358       .  S
O1369      C1380   1.291       .  A
O1369     Eu1405   2.454   1_655  S
O1370      C1381   1.291       .  A
O1370     Eu1404   2.452   1_455  S
O1371      C1382   1.292       .  A
O1371     Eu1377   2.459       .  S
O1372      C1383   1.291       .  A
O1372     Eu3201   2.454       .  S
O1373      C1383   1.292       .  A
O1373     Eu1407   2.456       .  S
O1374      C1382   1.290       .  A
O1374     Eu1406   2.454       .  S
O1375      C1381   1.291       .  A
O1376      C1380   1.292   1_455  A
O1376     Eu1377   2.457       .  S
Eu1377     O3196   2.454   1_455  S
Eu1377     O3211   2.351   1_455  S
Eu1377     O1379   2.348       .  S
Eu1377     O2746   2.351   1_455  S
O1378     Eu2745   2.351   1_556  S
O1378     Eu3228   2.349       .  S
O1379     Eu1405   2.350       .  S
O1379     Eu1406   2.351       .  S
C1380      C1819   1.483       .  S
C1381      C1789   1.485       .  S
C1382      C1736   1.488       .  S
C1383      C1719   1.487       .  S
H1384      O1385   0.965       .  S
O1385     Eu1404   2.353   1_455  S
H1386      O1387   0.966       .  S
O1387     Eu3201   2.351       .  S
O1387     Eu3229   2.352       .  S
O1387     Eu1407   2.351       .  S
O1388      C1411   1.290   1_655  A
O1389      C1412   1.291       .  A
O1390      C1413   1.293       .  A
O1391      C1414   1.291       .  A
O1392      C1415   1.291       .  A
O1392     Eu1407   2.454       .  S
O1393      C1416   1.290       .  A
O1393     Eu1406   2.453       .  S
O1394      C1417   1.291       .  A
O1394     Eu1408   2.456   1_455  S
O1395      C1418   1.292       .  A
O1395     Eu3232   2.459       .  S
O1396      C1417   1.291       .  A
O1397      C1418   1.291       .  A
O1398      C1413   1.291       .  A
O1398     Eu1404   2.455   1_455  S
O1399      C1416   1.292       .  A
O1399     Eu1405   2.458       .  S
O1400      C1415   1.290       .  A
O1400     Eu3229   2.454       .  S
O1401      C1414   1.292       .  A
O1401     Eu3228   2.462       .  S
O1402      C1411   1.290   1_655  A
O1403      C1412   1.291       .  A
O1403     Eu1408   2.455       .  S
Eu1404     O3225   2.462       .  S
Eu1404     O3202   2.349       .  S
Eu1404     O2334   2.351       .  S
Eu1405     O3224   2.454   1_455  S
Eu1405     O3211   2.352   1_455  S
Eu1405     O2321   2.348   1_455  S
Eu1408     O3219   2.459       .  S
Eu1408     O3233   2.347       .  S
Eu1408     O1420   2.353   1_655  S
Eu1408     O2790   2.352       .  S
O1409     Eu2317   2.348       .  S
O1409     Eu3232   2.347       .  S
C1411      C1796   1.482       .  S
C1412      C1806   1.484       .  S
C1413      C1756   1.487       .  S
C1414      C1749   1.491       .  S
C1415      C1776   1.486       .  S
C1416      C1769   1.487       .  S
C1417      C1726   1.486       .  S
C1418      C1706   1.488       .  S
H1419      O1420   0.966       .  S
H1421      O1422   0.966       .  S
O1422     Eu2316   2.350       .  S
O1422     Eu2776   2.352       .  S
O1423      C1434   1.291   1_455  A
O1423     Eu1459   2.455       .  S
O1424      C1435   1.292   1_655  A
O1424     Eu1458   2.456       .  S
O1425      C1436   1.290       .  A
O1425     Eu1431   2.453       .  S
O1426      C1437   1.291       .  A
O1426     Eu3255   2.457       .  S
O1427      C1437   1.291       .  A
O1427     Eu1461   2.452       .  S
O1428      C1436   1.292       .  A
O1428     Eu1460   2.457       .  S
O1429      C1435   1.290       .  A
O1429     Eu1431   2.451       .  S
O1430      C1434   1.292       .  A
O1430     Eu1431   2.458   1_655  S
Eu1431     O3250   2.457   1_455  S
Eu1431     O3265   2.349   1_455  S
Eu1431     O1433   2.349       .  S
Eu1431     O3256   2.350   1_455  S
Eu1431     O1439   2.354       .  S
O1432     Eu3255   2.350       .  S
O1432     Eu1461   2.349       .  S
O1432     Eu3282   2.347       .  S
O1433     Eu1459   2.349       .  S
O1433     Eu1460   2.353       .  S
C1434      C1816   1.484       .  S
C1435      C1786   1.486       .  S
C1436      C1646   1.485       .  S
C1437      C1626   1.487       .  S
H1438      O1439   0.966       .  S
O1439     Eu1460   2.351       .  S
O1439     Eu1458   2.350   1_455  S
H1440      O1441   0.965       .  S
O1441     Eu3255   2.349       .  S
O1441     Eu3283   2.353       .  S
O1441     Eu1461   2.352       .  S
O1442      C1465   1.290       .  A
O1442     Eu1458   2.449   1_455  S
O1443      C1466   1.291       .  A
O1443     Eu1459   2.455   1_655  S
O1444      C1467   1.292       .  A
O1444     Eu1460   2.460       .  S
O1445      C1468   1.292       .  A
O1445     Eu1461   2.458       .  S
O1446      C1469   1.291       .  A
O1446     Eu1461   2.454       .  S
O1447      C1470   1.290       .  A
O1447     Eu1460   2.449       .  S
O1448      C1471   1.291       .  A
O1448     Eu1462   2.456   1_455  S
O1449      C1472   1.291       .  A
O1449     Eu3286   2.455       .  S
O1450      C1471   1.292       .  A
O1450     Eu1460   2.461       .  S
O1451      C1472   1.290       .  A
O1451     Eu1461   2.453       .  S
O1452      C1467   1.290       .  A
O1452     Eu1458   2.450   1_455  S
O1453      C1470   1.293       .  A
O1453     Eu1459   2.463       .  S
O1454      C1469   1.292       .  A
O1454     Eu3283   2.460       .  S
O1455      C1468   1.290       .  A
O1455     Eu3282   2.453       .  S
O1456      C1465   1.291       .  A
O1456     Eu1462   2.454   1_455  S
O1457      C1466   1.291       .  A
O1457     Eu1462   2.456       .  S
Eu1458     O3279   2.453       .  S
Eu1458     O3256   2.347       .  S
Eu1458     O3300   2.352       .  S
Eu1458     O1464   2.350   1_655  S
Eu1459     O3278   2.460   1_455  S
Eu1459     O3265   2.353   1_455  S
Eu1459     O3287   2.350   1_455  S
Eu1459     O1474   2.353       .  S
Eu1460     O1474   2.352       .  S
Eu1460     O1464   2.345       .  S
Eu1461     O1463   2.349       .  S
Eu1461     O1476   2.348       .  S
Eu1462     O3273   2.455       .  S
Eu1462     O3287   2.348       .  S
Eu1462     O1474   2.349   1_655  S
Eu1462     O3300   2.350       .  S
Eu1462     O1464   2.350   1_655  S
O1463     Eu3283   2.350       .  S
O1463     Eu3286   2.348       .  S
C1465      C1799   1.482       .  S
C1466      C1809   1.484       .  S
C1467      C1689   1.487       .  S
C1468      C1696   1.488       .  S
C1469      C1666   1.488       .  S
C1470      C1679   1.487       .  S
C1471      C1656   1.490       .  S
C1472      C1636   1.487       .  S
H1473      O1474   0.965       .  S
H1475      O1476   0.966       .  S
O1476     Eu3282   2.352       .  S
O1476     Eu3286   2.350       .  S
O1477      C1488   1.292       .  A
O1477     Eu1513   2.460   1_565  S
O1478      C1489   1.290       .  A
O1478     Eu1512   2.450       .  S
O1479      C1490   1.292       .  A
O1479     Eu1485   2.461   1_565  S
O1480      C1491   1.291       .  A
O1481      C1491   1.291       .  A
O1481     Eu1515   2.455       .  S
O1482      C1490   1.291       .  A
O1482     Eu1514   2.454       .  S
O1483      C1489   1.292       .  A
O1483     Eu1485   2.459       .  S
O1484      C1488   1.290       .  A
O1484     Eu1485   2.453   1_565  S
Eu1485     O1487   2.348   1_545  S
Eu1485     O1493   2.351   1_545  S
O1486     Eu1515   2.349       .  S
O1487     Eu1513   2.349   1_565  S
O1487     Eu1514   2.349       .  S
C1490      C1599   1.476       .  S
C1491      C1586   1.475       .  S
H1492      O1493   0.966       .  S
O1493     Eu1514   2.355       .  S
O1493     Eu1512   2.355   1_565  S
H1494      O1495   0.966       .  S
O1495     Eu1515   2.351       .  S
O1496      C1519   1.291       .  A
O1496     Eu1512   2.455       .  S
O1497      C1520   1.291   1_545  A
O1497     Eu1513   2.454       .  S
O1498      C1521   1.291       .  A
O1498     Eu1514   2.457       .  S
O1499      C1522   1.290       .  A
O1499     Eu1515   2.449       .  S
O1500      C1523   1.289       .  A
O1500     Eu1515   2.448       .  S
O1501      C1524   1.293       .  A
O1501     Eu1514   2.462       .  S
O1502      C1525   1.292       .  A
O1502     Eu1516   2.463       .  S
O1503      C1526   1.292       .  A
O1504      C1525   1.292       .  A
O1504     Eu1514   2.461       .  S
O1505      C1526   1.291       .  A
O1505     Eu1515   2.455       .  S
O1506      C1521   1.292       .  A
O1506     Eu1512   2.459   1_565  S
O1507      C1524   1.289       .  A
O1507     Eu1513   2.447   1_565  S
O1508      C1523   1.292       .  A
O1509      C1522   1.292       .  A
O1510      C1519   1.292       .  A
O1510     Eu1516   2.461   1_545  S
O1511      C1520   1.292       .  A
O1511     Eu1516   2.459       .  S
Eu1512     O1518   2.350   1_545  S
Eu1513     O1528   2.356   1_545  S
Eu1514     O1528   2.350       .  S
Eu1514     O1518   2.349       .  S
Eu1515     O1517   2.347       .  S
Eu1515     O1530   2.351       .  S
Eu1516     O1528   2.352       .  S
Eu1516     O1518   2.348       .  S
C1521      C1659   1.489       .  S
C1522      C1649   1.485       .  S
C1523      C1629   1.487       .  S
C1524      C1639   1.487       .  S
C1525      C1606   1.484       .  S
C1526      C1619   1.487       .  S
H1527      O1528   0.965       .  S
H1529      O1530   0.966       .  S
O1531      C1542   1.291       .  A
O1531     Eu1567   2.454       .  S
O1532      C1543   1.291   1_554  A
O1532     Eu1566   2.454       .  S
O1533      C1544   1.290       .  A
O1534      C1545   1.292       .  A
O1534     Eu1539   2.457   1_556  S
O1535      C1545   1.290       .  A
O1535     Eu1569   2.453       .  S
O1536      C1544   1.293       .  A
O1536     Eu1568   2.462       .  S
O1537      C1543   1.291       .  A
O1537     Eu1539   2.452   1_556  S
O1538      C1542   1.291       .  A
O1538     Eu1539   2.456       .  S
Eu1539     O1549   2.351   1_554  S
Eu1539     O1540   2.348   1_554  S
O1540     Eu1569   2.347       .  S
O1540     Eu1566   2.349   1_556  S
O1541     Eu1568   2.351       .  S
C1544      C1676   1.488       .  S
C1545      C1686   1.487       .  S
H1546      O1547   0.966       .  S
O1547     Eu1568   2.353       .  S
H1548      O1549   0.966       .  S
O1549     Eu1567   2.354   1_556  S
O1549     Eu1569   2.355       .  S
O1550      C1573   1.292       .  A
O1550     Eu1566   2.456       .  S
O1551      C1574   1.292       .  A
O1551     Eu1567   2.461   1_556  S
O1552      C1575   1.291       .  A
O1552     Eu1568   2.456       .  S
O1553      C1576   1.292       .  A
O1553     Eu1569   2.461       .  S
O1554      C1577   1.292       .  A
O1554     Eu1569   2.459       .  S
O1555      C1578   1.291       .  A
O1555     Eu1568   2.456       .  S
O1556      C1579   1.290       .  A
O1557      C1580   1.292       .  A
O1557     Eu1570   2.459       .  S
O1558      C1579   1.293       .  A
O1558     Eu1568   2.461       .  S
O1559      C1580   1.290       .  A
O1559     Eu1569   2.453       .  S
O1560      C1575   1.291       .  A
O1561      C1578   1.291       .  A
O1562      C1577   1.290       .  A
O1562     Eu1567   2.451   1_556  S
O1563      C1576   1.292       .  A
O1563     Eu1566   2.464   1_556  S
O1564      C1573   1.291       .  A
O1564     Eu1570   2.456   1_554  S
O1565      C1574   1.292       .  A
O1565     Eu1570   2.458       .  S
Eu1566     O1584   2.350   1_554  S
Eu1567     O1571   2.350   1_554  S
Eu1568     O1582   2.354       .  S
Eu1568     O1572   2.351       .  S
Eu1569     O1571   2.350       .  S
Eu1569     O1584   2.352       .  S
Eu1570     O1571   2.347       .  S
Eu1570     O1584   2.352       .  S
C1575      C1596   1.475       .  S
C1576      C1609   1.484       .  S
C1577      C1616   1.487       .  S
C1578      C1589   1.475       .  S
C1579      C1669   1.488       .  S
C1580      C1699   1.488       .  S
H1581      O1582   0.966       .  S
H1583      O1584   0.965       .  S
C1585      C1586   1.404       .  A
C1585      C1590   1.397       .  A
C1585      H1592   1.084       .  S
C1586      C1587   1.407       .  A
C1587      C1588   1.397       .  A
C1587      F1594   1.358       .  S
C1588      C1589   1.404       .  A
C1588      H1593   1.084       .  S
C1589      C1590   1.407       .  A
C1590      F1591   1.358       .  S
C1595      C1596   1.404       .  A
C1595      C1600   1.399       .  A
C1595      H1602   1.084       .  S
C1596      C1597   1.407       .  A
C1597      C1598   1.398       .  A
C1597      F1604   1.358       .  S
C1598      C1599   1.404       .  A
C1598      H1603   1.084       .  S
C1599      C1600   1.407       .  A
C1600      F1601   1.358       .  S
C1605      C1606   1.406       .  A
C1605      C1610   1.401       .  A
C1605      H1612   1.083       .  S
C1606      C1607   1.409       .  A
C1607      C1608   1.399       .  A
C1607      F1614   1.358       .  S
C1608      C1609   1.405       .  A
C1608      H1613   1.083       .  S
C1609      C1610   1.409       .  A
C1610      F1611   1.358       .  S
C1615      C1616   1.406       .  A
C1615      C1620   1.397       .  A
C1615      H1622   1.083       .  S
C1616      C1617   1.411       .  A
C1617      C1618   1.397       .  A
C1617      F1624   1.358       .  S
C1618      C1619   1.407       .  A
C1618      H1623   1.083       .  S
C1619      C1620   1.411       .  A
C1620      F1621   1.357       .  S
C1625      C1626   1.407       .  A
C1625      C1630   1.397       .  A
C1625      H1632   1.083       .  S
C1626      C1627   1.410       .  A
C1627      C1628   1.397       .  A
C1627      F1634   1.357       .  S
C1628      C1629   1.406       .  A
C1628      H1633   1.083       .  S
C1629      C1630   1.411       .  A
C1630      F1631   1.358       .  S
C1635      C1636   1.406       .  A
C1635      C1640   1.397       .  A
C1635      H1642   1.083       .  S
C1636      C1637   1.411       .  A
C1637      C1638   1.397       .  A
C1637      F1644   1.357       .  S
C1638      C1639   1.406       .  A
C1638      H1643   1.083       .  S
C1639      C1640   1.411       .  A
C1640      F1641   1.358       .  S
C1645      C1646   1.406       .  A
C1645      C1650   1.397       .  A
C1645      H1652   1.083       .  S
C1646      C1647   1.410       .  A
C1647      C1648   1.396       .  A
C1647      F1654   1.358       .  S
C1648      C1649   1.406       .  A
C1648      H1653   1.083       .  S
C1649      C1650   1.410       .  A
C1650      F1651   1.358       .  S
C1655      C1656   1.407       .  A
C1655      C1660   1.397       .  A
C1655      H1662   1.083       .  S
C1656      C1657   1.411       .  A
C1657      C1658   1.399       .  A
C1657      F1664   1.358       .  S
C1658      C1659   1.407       .  A
C1658      H1663   1.083       .  S
C1659      C1660   1.411       .  A
C1660      F1661   1.357       .  S
C1665      C1666   1.407       .  A
C1665      C1670   1.398       .  A
C1665      H1672   1.083       .  S
C1666      C1667   1.411       .  A
C1667      C1668   1.397       .  A
C1667      F1674   1.357       .  S
C1668      C1669   1.406       .  A
C1668      H1673   1.083       .  S
C1669      C1670   1.411       .  A
C1670      F1671   1.358       .  S
C1675      C1676   1.406       .  A
C1675      C1680   1.398       .  A
C1675      H1682   1.083       .  S
C1676      C1677   1.411       .  A
C1677      C1678   1.396       .  A
C1677      F1684   1.357       .  S
C1678      C1679   1.406       .  A
C1678      H1683   1.083       .  S
C1679      C1680   1.412       .  A
C1680      F1681   1.358       .  S
C1685      C1686   1.407       .  A
C1685      C1690   1.398       .  A
C1685      H1692   1.083       .  S
C1686      C1687   1.411       .  A
C1687      C1688   1.396       .  A
C1687      F1694   1.357       .  S
C1688      C1689   1.406       .  A
C1688      H1693   1.083       .  S
C1689      C1690   1.411       .  A
C1690      F1691   1.358       .  S
C1695      C1696   1.407       .  A
C1695      C1700   1.398       .  A
C1695      H1702   1.083       .  S
C1696      C1697   1.411       .  A
C1697      C1698   1.397       .  A
C1697      F1704   1.358       .  S
C1698      C1699   1.406       .  A
C1698      H1703   1.083       .  S
C1699      C1700   1.411       .  A
C1700      F1701   1.358       .  S
C1705      C1706   1.407       .  A
C1705      C1710   1.398       .  A
C1705      H1712   1.083       .  S
C1707      C1708   1.397       .  A
C1707      F1714   1.358       .  S
C1708      H1713   1.083       .  S
C1709      C1710   1.410       .  A
C1710      F1711   1.358       .  S
C1715      C1720   1.398       .  A
C1715      H1722   1.083       .  S
C1716      C1717   1.410       .  A
C1717      C1718   1.397       .  A
C1717      F1724   1.358       .  S
C1718      C1719   1.407       .  A
C1718      H1723   1.083       .  S
C1720      F1721   1.358       .  S
C1725      C1726   1.407       .  A
C1725      C1730   1.396       .  A
C1725      H1732   1.083       .  S
C1727      C1728   1.397       .  A
C1727      F1734   1.358       .  S
C1728      H1733   1.083       .  S
C1729      C1730   1.410       .  A
C1730      F1731   1.358       .  S
C1735      C1736   1.407       .  A
C1735      C1740   1.398       .  A
C1735      H1742   1.083       .  S
C1737      C1738   1.397       .  A
C1737      F1744   1.358       .  S
C1738      H1743   1.083       .  S
C1739      C1740   1.410       .  A
C1740      F1741   1.357       .  S
C1745      C1746   1.407       .  A
C1745      C1750   1.399       .  A
C1745      H1752   1.083       .  S
C1747      C1748   1.397       .  A
C1747      F1754   1.358       .  S
C1748      H1753   1.083   1_565  S
C1749      C1750   1.411       .  A
C1750      F1751   1.357       .  S
C1755      C1760   1.397       .  A
C1755      H1762   1.083       .  S
C1756      C1757   1.411       .  A
C1757      C1758   1.398       .  A
C1757      F1764   1.358       .  S
C1758      C1759   1.407       .  A
C1758      H1763   1.083       .  S
C1760      F1761   1.357       .  S
C1765      C1770   1.397       .  A
C1765      H1772   1.083       .  S
C1766      C1767   1.411       .  A
C1767      C1768   1.397       .  A
C1767      F1774   1.358       .  S
C1768      C1769   1.406       .  A
C1768      H1773   1.083       .  S
C1770      F1771   1.358       .  S
C1775      C1780   1.396       .  A
C1775      H1782   1.083       .  S
C1776      C1777   1.410       .  A
C1777      C1778   1.397       .  A
C1777      F1784   1.358       .  S
C1778      C1779   1.407       .  A
C1778      H1783   1.083       .  S
C1780      F1781   1.357       .  S
C1785      C1786   1.406       .  A
C1785      C1790   1.395       .  A
C1785      H1792   1.083   1_455  S
C1786      C3611   1.411       .  A
C1787      C3610   1.411       .  A
C1787      C1788   1.397       .  A
C1787      F1794   1.358       .  S
C1788      C3613   1.407       .  A
C1788      H1793   1.083       .  S
C1789      C3612   1.407       .  A
C1789      C1790   1.410       .  A
C1790      F1791   1.358   1_455  S
C1795      C3620   1.406       .  A
C1795      C1800   1.397       .  A
C1795      H1802   1.083       .  S
C1796      C3619   1.406       .  A
C1796      C1797   1.409   1_455  A
C1797      C1798   1.395       .  A
C1797      F1804   1.358       .  S
C1798      C1799   1.405   1_655  A
C1798      H1803   1.083       .  S
C1799      C3624   1.410       .  A
C1800      C3623   1.410       .  A
C1800      F1801   1.358       .  S
C1805      C3630   1.406       .  A
C1805      C1810   1.397       .  A
C1805      H1812   1.083       .  S
C1806      C3629   1.406   1_655  A
C1806      C1807   1.410       .  A
C1807      C1808   1.398       .  A
C1807      F1814   1.358       .  S
C1808      C1809   1.406       .  A
C1808      H1813   1.083       .  S
C1809      C3634   1.409   1_655  A
C1810      C3633   1.409       .  A
C1810      F1811   1.358       .  S
C1815      C3640   1.406       .  A
C1815      C1820   1.398       .  A
C1815      H1822   1.083       .  S
C1816      C3639   1.406       .  A
C1816      C1817   1.409   1_655  A
C1817      C1818   1.397       .  A
C1817      F1824   1.358       .  S
C1818      C1819   1.405   1_455  A
C1818      H1823   1.083       .  S
C1819      C3644   1.409       .  A
C1820      C3643   1.409       .  A
C1820      F1821   1.358       .  S
O1825      C1836   1.290       .  A
O1825     Eu1861   2.451   1_545  S
O1826      C1837   1.291       .  A
O1826     Eu1860   2.452   1_545  S
O1827      C1838   1.292       .  A
O1827     Eu1833   2.458   1_554  S
O1828      C1839   1.291       .  A
O1829      C1839   1.292       .  A
O1829     Eu1863   2.456   1_556  S
O1830      C1838   1.290   1_556  A
O1830     Eu1862   2.453   1_545  S
O1831      C1837   1.290       .  A
O1831     Eu2289   2.451       .  S
O1832      C1836   1.292       .  A
O1832     Eu1833   2.460   1_554  S
Eu1833     O2287   2.455       .  S
Eu1833     O1835   2.348   1_556  S
Eu1833     O2297   2.351       .  S
O1834     Eu2319   2.348       .  S
O1835     Eu1861   2.350   1_545  S
O1835     Eu1862   2.350   1_544  S
C1836      C2275   1.487       .  S
C1837      C2245   1.485       .  S
C1838      C2192   1.487       .  S
C1839      C2175   1.488       .  S
H1840      O1841   0.966       .  S
O1841     Eu2289   2.352       .  S
O1841     Eu2318   2.348   1_545  S
O1841     Eu1860   2.354   1_545  S
H1842      O1843   0.966       .  S
O1843     Eu1863   2.352       .  S
O1844      C1867   1.290       .  A
O1844     Eu2772   2.453       .  S
O1845      C1868   1.291       .  A
O1845     Eu2773   2.453       .  S
O1846      C1869   1.292       .  A
O1846     Eu2318   2.461       .  S
O1847      C1870   1.291       .  A
O1847     Eu2319   2.460   1_565  S
O1848      C1871   1.291       .  A
O1848     Eu1863   2.454   1_565  S
O1849      C1872   1.291   1_565  A
O1849     Eu1862   2.455   1_554  S
O1850      C1873   1.290       .  A
O1850     Eu1864   2.454   1_556  S
O1851      C1874   1.292       .  A
O1852      C1873   1.291       .  A
O1852     Eu2774   2.451       .  S
O1853      C1874   1.291       .  A
O1853     Eu2775   2.456       .  S
O1854      C1869   1.291       .  A
O1854     Eu1860   2.458       .  S
O1855      C1872   1.292       .  A
O1855     Eu1861   2.457   1_545  S
O1856      C1871   1.291       .  A
O1857      C1870   1.293       .  A
O1858      C1867   1.291       .  A
O1858     Eu2320   2.454       .  S
O1859      C1868   1.290       .  A
O1859     Eu1864   2.454       .  S
Eu1860     O2756   2.452       .  S
Eu1860     O2778   2.349       .  S
Eu1861     O2757   2.455       .  S
Eu1861     O2788   2.351       .  S
Eu1862     O2302   2.463       .  S
Eu1862     O2764   2.450       .  S
Eu1862     O2297   2.347   1_565  S
Eu1862     O2788   2.354   1_556  S
Eu1862     O3234   2.349       .  S
Eu1863     O2303   2.454   1_554  S
Eu1863     O2765   2.454   1_545  S
Eu1863     O2290   2.347   1_554  S
Eu1863     O2777   2.347   1_545  S
Eu1863     O3246   2.351   1_544  S
Eu1864     O2314   2.451   1_554  S
Eu1864     O1876   2.352       .  S
Eu1864     O2322   2.351   1_554  S
O1865     Eu2775   2.349       .  S
O1866     Eu2772   2.350       .  S
O1866     Eu3230   2.349       .  S
O1866     Eu2320   2.351       .  S
C1867      C2252   1.482       .  S
C1868      C2262   1.482       .  S
C1869      C2212   1.485       .  S
C1870      C2205   1.492       .  S
C1871      C2232   1.486       .  S
C1872      C2225   1.487       .  S
C1873      C2182   1.485       .  S
C1874      C2162   1.489       .  S
H1875      O1876   0.966       .  S
O1876     Eu2773   2.352       .  S
O1876     Eu2774   2.354   1_554  S
H1877      O1878   0.965       .  S
O1878     Eu3231   2.350       .  S
O1879      C1890   1.291       .  A
O1879     Eu1915   2.456       .  S
O1880      C1891   1.291       .  A
O1880     Eu1914   2.454       .  S
O1881      C1892   1.290       .  A
O1881     Eu1887   2.451       .  S
O1882      C1893   1.291       .  A
O1883      C1893   1.291       .  A
O1883     Eu1917   2.453       .  S
O1884      C1892   1.292       .  A
O1884     Eu1916   2.457       .  S
O1885      C1891   1.290       .  A
O1885     Eu1887   2.449       .  S
O1886      C1890   1.292       .  A
O1886     Eu1887   2.457       .  S
Eu1887     O1889   2.347       .  S
Eu1887     O1895   2.355       .  S
O1888     Eu1917   2.348       .  S
O1889     Eu1915   2.349       .  S
O1889     Eu1916   2.353       .  S
C1890      C2272   1.488       .  S
C1891      C2242   1.485       .  S
C1892      C2102   1.486       .  S
C1893      C2082   1.487       .  S
H1894      O1895   0.966       .  S
O1895     Eu1916   2.350       .  S
O1895     Eu1914   2.350       .  S
H1896      O1897   0.965       .  S
O1897     Eu1917   2.351       .  S
O1898      C1921   1.290       .  A
O1898     Eu1914   2.450       .  S
O1899      C1922   1.291       .  A
O1899     Eu1915   2.455       .  S
O1900      C1923   1.293       .  A
O1900     Eu1916   2.464       .  S
O1901      C1924   1.292       .  A
O1901     Eu1917   2.457       .  S
O1902      C1925   1.291       .  A
O1902     Eu1917   2.454       .  S
O1903      C1926   1.290       .  A
O1903     Eu1916   2.451       .  S
O1904      C1927   1.291       .  A
O1904     Eu1918   2.458       .  S
O1905      C1928   1.291       .  A
O1906      C1927   1.292       .  A
O1906     Eu1916   2.459       .  S
O1907      C1928   1.290       .  A
O1907     Eu1917   2.452       .  S
O1908      C1923   1.290       .  A
O1908     Eu1914   2.453       .  S
O1909      C1926   1.293       .  A
O1909     Eu1915   2.462       .  S
O1910      C1925   1.293       .  A
O1911      C1924   1.290       .  A
O1912      C1921   1.292       .  A
O1912     Eu1918   2.456       .  S
O1913      C1922   1.290       .  A
O1913     Eu1918   2.452       .  S
Eu1914     O1920   2.348       .  S
Eu1915     O1930   2.354       .  S
Eu1916     O1930   2.354       .  S
Eu1916     O1920   2.345       .  S
Eu1917     O1919   2.349       .  S
Eu1917     O1932   2.350       .  S
Eu1918     O1930   2.350       .  S
Eu1918     O1920   2.348       .  S
C1921      C2255   1.482       .  S
C1922      C2265   1.482       .  S
C1923      C2145   1.490       .  S
C1924      C2152   1.487       .  S
C1925      C2122   1.489       .  S
C1926      C2135   1.488       .  S
C1927      C2112   1.489       .  S
C1928      C2092   1.486       .  S
H1929      O1930   0.966       .  S
H1931      O1932   0.966       .  S
O1933      C1944   1.292       .  A
O1933     Eu1969   2.457       .  S
O1934      C1945   1.290       .  A
O1934     Eu1968   2.451       .  S
O1935      C1946   1.292       .  A
O1935     Eu1941   2.462       .  S
O1936      C1947   1.291       .  A
O1936     Eu2853   2.454       .  S
O1937      C1947   1.291       .  A
O1937     Eu1971   2.455       .  S
O1938      C1946   1.291       .  A
O1938     Eu1970   2.457       .  S
O1939      C1945   1.292       .  A
O1939     Eu1941   2.458       .  S
O1940      C1944   1.291       .  A
O1940     Eu1941   2.455       .  S
Eu1941     O2848   2.457       .  S
Eu1941     O2863   2.355       .  S
Eu1941     O1943   2.348       .  S
Eu1941     O2854   2.351       .  S
Eu1941     O1949   2.352       .  S
O1942     Eu2853   2.350       .  S
O1942     Eu1971   2.350       .  S
O1942     Eu2880   2.350       .  S
O1943     Eu1969   2.349       .  S
O1943     Eu1970   2.349       .  S
C1944      C3147   1.486       .  S
C1945      C3134   1.485       .  S
C1946      C2055   1.477       .  S
C1947      C2042   1.474       .  S
H1948      O1949   0.966       .  S
O1949     Eu1970   2.353       .  S
O1949     Eu1968   2.355       .  S
H1950      O1951   0.966       .  S
O1951     Eu2853   2.355       .  S
O1951     Eu2881   2.349       .  S
O1951     Eu1971   2.351       .  S
O1952      C1975   1.292       .  A
O1952     Eu1968   2.457       .  S
O1953      C1976   1.291       .  A
O1953     Eu1969   2.455       .  S
O1954      C1977   1.291       .  A
O1954     Eu1970   2.456       .  S
O1955      C1978   1.290       .  A
O1955     Eu1971   2.450       .  S
O1956      C1979   1.289       .  A
O1956     Eu1971   2.448       .  S
O1957      C1980   1.292       .  A
O1957     Eu1970   2.460       .  S
O1958      C1981   1.292       .  A
O1958     Eu1972   2.460       .  S
O1959      C1982   1.292       .  A
O1959     Eu2884   2.457       .  S
O1960      C1981   1.292       .  A
O1960     Eu1970   2.460       .  S
O1961      C1982   1.291       .  A
O1961     Eu1971   2.457       .  S
O1962      C1977   1.292       .  A
O1962     Eu1968   2.458       .  S
O1963      C1980   1.290       .  A
O1963     Eu1969   2.448       .  S
O1964      C1979   1.292       .  A
O1964     Eu2881   2.461       .  S
O1965      C1978   1.292       .  A
O1965     Eu2880   2.457       .  S
O1966      C1975   1.292       .  A
O1966     Eu1972   2.460       .  S
O1967      C1976   1.292       .  A
O1967     Eu1972   2.461       .  S
Eu1968     O2877   2.462       .  S
Eu1968     O2854   2.350       .  S
Eu1968     O2898   2.351       .  S
Eu1968     O1974   2.350       .  S
Eu1969     O2876   2.460       .  S
Eu1969     O2863   2.350       .  S
Eu1969     O2885   2.346       .  S
Eu1969     O1984   2.354       .  S
Eu1970     O1984   2.352       .  S
Eu1970     O1974   2.349       .  S
Eu1971     O1973   2.348       .  S
Eu1971     O1986   2.351       .  S
Eu1972     O2871   2.457       .  S
Eu1972     O2885   2.351       .  S
Eu1972     O1984   2.352       .  S
Eu1972     O2898   2.354       .  S
Eu1972     O1974   2.349       .  S
O1973     Eu2881   2.347       .  S
O1973     Eu2884   2.351       .  S
C1975      C3127   1.488       .  S
C1976      C3114   1.489       .  S
C1977      C2115   1.489       .  S
C1978      C2105   1.487       .  S
C1979      C2085   1.487       .  S
C1980      C2095   1.486       .  S
C1981      C2062   1.488       .  S
C1982      C2075   1.489       .  S
H1983      O1984   0.966       .  S
H1985      O1986   0.966       .  S
O1986     Eu2880   2.353       .  S
O1986     Eu2884   2.355       .  S
O1987      C1998   1.291       .  A
O1987     Eu2023   2.453       .  S
O1988      C1999   1.291       .  A
O1988     Eu2022   2.454       .  S
O1989      C2000   1.290       .  A
O1989     Eu2451   2.451       .  S
O1990      C2001   1.292       .  A
O1990     Eu1995   2.461       .  S
O1991      C2001   1.291       .  A
O1991     Eu2025   2.454       .  S
O1992      C2000   1.293       .  A
O1992     Eu2024   2.463       .  S
O1993      C1999   1.291       .  A
O1993     Eu1995   2.452       .  S
O1994      C1998   1.291       .  A
O1994     Eu1995   2.456       .  S
Eu1995     O2445   2.453       .  S
Eu1995     O2005   2.351       .  S
Eu1995     O2453   2.351       .  S
Eu1995     O1996   2.347       .  S
Eu1995     O2459   2.352       .  S
O1996     Eu2025   2.347       .  S
O1996     Eu2022   2.350       .  S
O1997     Eu2451   2.349       .  S
O1997     Eu2479   2.350       .  S
O1997     Eu2024   2.351       .  S
C1998      C2651   1.487       .  S
C1999      C2641   1.486       .  S
C2000      C2132   1.488       .  S
C2001      C2142   1.490       .  S
H2002      O2003   0.966       .  S
O2003     Eu2451   2.354       .  S
O2003     Eu2024   2.352       .  S
O2003     Eu2478   2.353       .  S
H2004      O2005   0.966       .  S
O2005     Eu2023   2.354       .  S
O2005     Eu2025   2.353       .  S
O2006      C2029   1.291       .  A
O2006     Eu2022   2.454       .  S
O2007      C2030   1.292       .  A
O2007     Eu2023   2.461       .  S
O2008      C2031   1.291       .  A
O2008     Eu2024   2.458       .  S
O2009      C2032   1.292       .  A
O2009     Eu2025   2.459       .  S
O2010      C2033   1.293       .  A
O2010     Eu2025   2.462       .  S
O2011      C2034   1.291       .  A
O2011     Eu2024   2.455       .  S
O2012      C2035   1.291       .  A
O2012     Eu2482   2.454   1_554  S
O2013      C2036   1.292       .  A
O2013     Eu2026   2.457       .  S
O2014      C2035   1.293       .  A
O2014     Eu2024   2.461       .  S
O2015      C2036   1.290       .  A
O2015     Eu2025   2.452       .  S
O2016      C2031   1.291       .  A
O2016     Eu2478   2.460       .  S
O2017      C2034   1.291       .  A
O2017     Eu2479   2.455       .  S
O2018      C2033   1.290       .  A
O2018     Eu2023   2.451       .  S
O2019      C2032   1.292       .  A
O2019     Eu2022   2.461       .  S
O2020      C2029   1.291       .  A
O2020     Eu2026   2.456       .  S
O2021      C2030   1.291       .  A
O2021     Eu2026   2.455       .  S
Eu2022     O2472   2.458       .  S
Eu2022     O2459   2.351       .  S
Eu2022     O2040   2.351       .  S
Eu2022     O2484   2.350       .  S
Eu2023     O2473   2.454       .  S
Eu2023     O2453   2.351       .  S
Eu2023     O2027   2.349       .  S
Eu2023     O2494   2.350       .  S
Eu2024     O2038   2.355       .  S
Eu2024     O2028   2.350       .  S
Eu2025     O2027   2.349       .  S
Eu2025     O2040   2.353       .  S
Eu2026     O2468   2.453       .  S
Eu2026     O2027   2.348       .  S
Eu2026     O2494   2.353       .  S
Eu2026     O2040   2.351       .  S
Eu2026     O2484   2.350       .  S
O2028     Eu2478   2.349       .  S
O2028     Eu2482   2.349   1_554  S
C2029      C2621   1.487       .  S
C2030      C2628   1.488       .  S
C2031      C2052   1.477       .  S
C2032      C2065   1.487       .  S
C2033      C2072   1.489       .  S
C2034      C2045   1.474       .  S
C2035      C2125   1.489       .  S
C2036      C2155   1.487       .  S
H2037      O2038   0.966       .  S
O2038     Eu2479   2.350       .  S
O2038     Eu2482   2.353   1_554  S
H2039      O2040   0.966       .  S
C2041      C2042   1.404       .  A
C2041      C2046   1.397       .  A
C2041      H2048   1.084       .  S
C2042      C2043   1.407       .  A
C2043      C2044   1.397       .  A
C2043      F2050   1.358       .  S
C2044      C2045   1.404       .  A
C2044      H2049   1.084       .  S
C2045      C2046   1.407       .  A
C2046      F2047   1.358       .  S
C2051      C2052   1.405       .  A
C2051      C2056   1.399       .  A
C2051      H2058   1.084       .  S
C2052      C2053   1.407       .  A
C2053      C2054   1.398       .  A
C2053      F2060   1.358       .  S
C2054      C2055   1.404       .  A
C2054      H2059   1.084       .  S
C2055      C2056   1.407       .  A
C2056      F2057   1.358       .  S
C2061      C2062   1.407       .  A
C2061      C2066   1.400       .  A
C2061      H2068   1.083       .  S
C2062      C2063   1.410       .  A
C2063      C2064   1.398       .  A
C2063      F2070   1.358       .  S
C2064      C2065   1.406       .  A
C2064      H2069   1.083       .  S
C2065      C2066   1.410       .  A
C2066      F2067   1.358       .  S
C2071      C2072   1.406       .  A
C2071      C2076   1.397       .  A
C2071      H2078   1.083       .  S
C2072      C2073   1.411       .  A
C2073      C2074   1.398       .  A
C2073      F2080   1.358       .  S
C2074      C2075   1.407       .  A
C2074      H2079   1.083       .  S
C2075      C2076   1.411       .  A
C2076      F2077   1.357       .  S
C2081      C2082   1.407       .  A
C2081      C2086   1.397       .  A
C2081      H2088   1.083       .  S
C2082      C2083   1.410       .  A
C2083      C2084   1.397       .  A
C2083      F2090   1.357       .  S
C2084      C2085   1.406       .  A
C2084      H2089   1.083       .  S
C2085      C2086   1.411       .  A
C2086      F2087   1.358       .  S
C2091      C2092   1.406       .  A
C2091      C2096   1.396       .  A
C2091      H2098   1.083       .  S
C2092      C2093   1.411       .  A
C2093      C2094   1.396       .  A
C2093      F2100   1.357       .  S
C2094      C2095   1.406       .  A
C2094      H2099   1.083       .  S
C2095      C2096   1.411       .  A
C2096      F2097   1.358       .  S
C2101      C2102   1.406       .  A
C2101      C2106   1.397       .  A
C2101      H2108   1.083       .  S
C2102      C2103   1.411       .  A
C2103      C2104   1.396       .  A
C2103      F2110   1.358       .  S
C2104      C2105   1.406       .  A
C2104      H2109   1.083       .  S
C2105      C2106   1.411       .  A
C2106      F2107   1.358       .  S
C2111      C2112   1.407       .  A
C2111      C2116   1.398       .  A
C2111      H2118   1.083       .  S
C2112      C2113   1.411       .  A
C2113      C2114   1.398       .  A
C2113      F2120   1.357       .  S
C2114      C2115   1.407       .  A
C2114      H2119   1.083       .  S
C2115      C2116   1.411       .  A
C2116      F2117   1.358       .  S
C2121      C2122   1.407       .  A
C2121      C2126   1.398       .  A
C2121      H2128   1.083       .  S
C2122      C2123   1.411       .  A
C2123      C2124   1.397       .  A
C2123      F2130   1.358       .  S
C2124      C2125   1.406       .  A
C2124      H2129   1.083       .  S
C2125      C2126   1.411       .  A
C2126      F2127   1.358       .  S
C2131      C2132   1.406       .  A
C2131      C2136   1.398       .  A
C2131      H2138   1.083       .  S
C2132      C2133   1.411       .  A
C2133      C2134   1.397       .  A
C2133      F2140   1.357       .  S
C2134      C2135   1.406       .  A
C2134      H2139   1.083       .  S
C2135      C2136   1.411       .  A
C2136      F2137   1.358       .  S
C2141      C2142   1.407       .  A
C2141      C2146   1.399       .  A
C2141      H2148   1.083       .  S
C2142      C2143   1.411       .  A
C2143      C2144   1.397       .  A
C2143      F2150   1.357       .  S
C2144      C2145   1.406       .  A
C2144      H2149   1.083       .  S
C2145      C2146   1.412       .  A
C2146      F2147   1.358       .  S
C2151      C2152   1.407       .  A
C2151      C2156   1.397       .  A
C2151      H2158   1.083       .  S
C2152      C2153   1.411       .  A
C2153      C2154   1.396       .  A
C2153      F2160   1.358       .  S
C2154      C2155   1.406       .  A
C2154      H2159   1.083       .  S
C2155      C2156   1.411       .  A
C2156      F2157   1.358       .  S
C2161      C2162   1.407       .  A
C2161      C2166   1.398       .  A
C2161      H2168   1.083       .  S
C2162      C2619   1.411   1_554  A
C2163      C2618   1.411       .  A
C2163      C2164   1.397       .  A
C2163      F2170   1.358       .  S
C2164      C2621   1.407       .  A
C2164      H2169   1.083       .  S
C2165      C2485   1.488       .  S
C2165      C2620   1.407   1_554  A
C2165      C2166   1.411       .  A
C2166      F2167   1.357       .  S
C2171      C2628   1.408       .  A
C2171      C2176   1.398       .  A
C2171      H2178   1.083       .  S
C2172      C2486   1.487       .  S
C2172      C2627   1.407       .  A
C2172      C2173   1.410       .  A
C2173      C2174   1.397       .  A
C2173      F2180   1.358       .  S
C2174      C2175   1.408       .  A
C2174      H2179   1.083       .  S
C2175      C2632   1.410       .  A
C2176      C2631   1.411       .  A
C2176      F2177   1.358       .  S
C2181      C2182   1.407   1_554  A
C2181      C2186   1.396       .  A
C2181      H2188   1.083       .  S
C2182      C2639   1.410       .  A
C2183      C2638   1.410       .  A
C2183      C2184   1.396       .  A
C2183      F2190   1.357       .  S
C2184      C2641   1.407       .  A
C2184      H2189   1.083       .  S
C2185      C2455   1.485       .  S
C2185      C2640   1.407       .  A
C2185      C2186   1.410   1_556  A
C2186      F2187   1.358       .  S
C2191      C2192   1.406       .  A
C2191      C2196   1.397       .  A
C2191      H2198   1.083       .  S
C2192      C2649   1.411   1_554  A
C2193      C2648   1.411       .  A
C2193      C2194   1.397       .  A
C2193      F2200   1.358       .  S
C2194      C2651   1.407       .  A
C2194      H2199   1.083       .  S
C2195      C2454   1.487       .  S
C2195      C2650   1.407   1_554  A
C2195      C2196   1.410       .  A
C2196      F2197   1.357       .  S
C2201      C2202   1.407       .  A
C2201      C2206   1.399       .  A
C2201      H2208   1.083       .  S
C2202      C2888   1.492       .  S
C2202      C3115   1.412   1_565  A
C2203      C3114   1.411       .  A
C2203      C2204   1.398       .  A
C2203      F2210   1.358       .  S
C2204      C3117   1.407       .  A
C2204      H2209   1.083       .  S
C2205      C3116   1.407   1_565  A
C2205      C2206   1.412       .  A
C2206      F2207   1.357       .  S
C2211      C3124   1.406       .  A
C2211      C2216   1.398       .  A
C2211      H2218   1.083       .  S
C2212      C3123   1.406   1_565  A
C2212      C2213   1.409       .  A
C2213      C2214   1.399       .  A
C2213      F2220   1.358       .  S
C2214      C2215   1.406   1_565  A
C2214      H2219   1.083       .  S
C2215      C2887   1.484       .  S
C2215      C3128   1.409       .  A
C2216      C3127   1.410       .  A
C2216      F2217   1.357       .  S
C2221      C3134   1.406       .  A
C2221      C2226   1.397       .  A
C2221      H2228   1.083       .  S
C2222      C2857   1.487       .  S
C2222      C3133   1.407   1_545  A
C2222      C2223   1.410       .  A
C2223      C2224   1.397       .  A
C2223      F2230   1.358       .  S
C2224      C2225   1.406       .  A
C2224      H2229   1.083       .  S
C2225      C3138   1.410   1_545  A
C2226      C3137   1.410       .  A
C2226      F2227   1.358       .  S
C2231      C3144   1.406       .  A
C2231      C2236   1.396       .  A
C2231      H2238   1.083       .  S
C2232      C3143   1.406   1_565  A
C2232      C2233   1.410       .  A
C2233      C2234   1.398       .  A
C2233      F2240   1.358       .  S
C2234      C2235   1.407       .  A
C2234      H2239   1.083       .  S
C2235      C2856   1.487       .  S
C2235      C3148   1.410   1_565  A
C2236      C3147   1.410       .  A
C2236      F2237   1.357       .  S
C2241      C2242   1.406       .  A
C2241      C2246   1.395       .  A
C2241      H2248   1.083       .  S
C2243      C2244   1.396       .  A
C2243      F2250   1.358       .  S
C2244      H2249   1.083       .  S
C2245      C2246   1.410       .  A
C2246      F2247   1.358       .  S
C2251      C2256   1.397       .  A
C2251      H2258   1.083       .  S
C2252      C2253   1.409       .  A
C2253      C2254   1.396       .  A
C2253      F2260   1.358       .  S
C2254      C2255   1.405       .  A
C2254      H2259   1.083       .  S
C2256      F2257   1.358       .  S
C2261      C2266   1.397       .  A
C2261      H2268   1.083       .  S
C2262      C2263   1.409       .  A
C2263      C2264   1.397       .  A
C2263      F2270   1.358       .  S
C2264      C2265   1.406       .  A
C2264      H2269   1.083       .  S
C2266      F2267   1.358       .  S
C2271      C2276   1.397       .  A
C2271      H2278   1.083       .  S
C2272      C2273   1.411       .  A
C2273      C2274   1.397       .  A
C2273      F2280   1.357       .  S
C2274      C2275   1.406       .  A
C2274      H2279   1.083       .  S
C2276      F2277   1.358       .  S
O2281      C2292   1.291       .  A
O2281     Eu2317   2.457   1_545  S
O2282      C2293   1.291       .  A
O2282     Eu2316   2.451   1_545  S
O2283      C2294   1.292       .  A
O2283     Eu2289   2.457       .  S
O2284      C2295   1.291       .  A
O2285      C2295   1.292       .  A
O2285     Eu2319   2.458       .  S
O2286      C2294   1.290       .  A
O2286     Eu2318   2.453   1_545  S
O2287      C2293   1.291       .  A
O2288      C2292   1.292       .  A
O2288     Eu2289   2.458       .  S
Eu2289     O2291   2.348       .  S
O2291     Eu2317   2.349   1_545  S
O2291     Eu2318   2.350   1_545  S
C2292      C2731   1.485       .  S
C2293      C2701   1.483       .  S
C2294      C2648   1.487       .  S
C2295      C2631   1.488       .  S
H2296      O2297   0.965       .  S
O2297     Eu2316   2.352   1_545  S
H2298      O2299   0.966       .  S
O2299     Eu2319   2.353       .  S
O2300      C2323   1.291       .  A
O2300     Eu3228   2.454       .  S
O2301      C2324   1.291       .  A
O2301     Eu3229   2.453       .  S
O2302      C2325   1.293       .  A
O2303      C2326   1.290       .  A
O2304      C2327   1.292       .  A
O2304     Eu2319   2.455   1_565  S
O2305      C2328   1.290   1_565  A
O2305     Eu2318   2.452       .  S
O2306      C2329   1.291       .  A
O2306     Eu2320   2.457       .  S
O2307      C2330   1.292       .  A
O2308      C2329   1.291       .  A
O2308     Eu3230   2.452       .  S
O2309      C2330   1.290       .  A
O2309     Eu3231   2.454       .  S
O2310      C2325   1.291       .  A
O2310     Eu2316   2.455       .  S
O2311      C2328   1.292       .  A
O2311     Eu2317   2.458   1_545  S
O2312      C2327   1.291       .  A
O2313      C2326   1.292       .  A
O2314      C2323   1.291       .  A
O2315      C2324   1.291       .  A
O2315     Eu2320   2.455       .  S
Eu2316     O3212   2.453       .  S
Eu2316     O3234   2.349       .  S
Eu2317     O3213   2.456       .  S
Eu2317     O3244   2.353       .  S
Eu2318     O3220   2.452       .  S
Eu2318     O3244   2.354       .  S
Eu2318     O2778   2.348       .  S
Eu2319     O3221   2.456   1_545  S
Eu2319     O3233   2.349   1_545  S
Eu2319     O2790   2.350   1_545  S
Eu2320     O2332   2.351       .  S
O2321     Eu3231   2.348       .  S
O2322     Eu3228   2.348       .  S
O2322     Eu2774   2.348       .  S
C2323      C2708   1.481       .  S
C2324      C2718   1.484       .  S
C2325      C2668   1.489       .  S
C2326      C2661   1.488   1_545  S
C2327      C2688   1.486       .  S
C2328      C2681   1.486       .  S
C2329      C2638   1.486       .  S
C2330      C2618   1.488       .  S
H2331      O2332   0.966       .  S
O2332     Eu3229   2.352       .  S
O2332     Eu3230   2.354       .  S
H2333      O2334   0.966       .  S
O2334     Eu2775   2.351   1_556  S
O2335      C2346   1.291       .  A
O2335     Eu2371   2.458       .  S
O2336      C2347   1.292       .  A
O2336     Eu2370   2.456       .  S
O2337      C2348   1.291       .  A
O2337     Eu2343   2.454       .  S
O2338      C2349   1.291       .  A
O2339      C2349   1.291       .  A
O2339     Eu2373   2.451       .  S
O2340      C2348   1.292       .  A
O2340     Eu2372   2.458       .  S
O2341      C2347   1.290       .  A
O2341     Eu2343   2.451       .  S
O2342      C2346   1.292       .  A
O2342     Eu2343   2.458       .  S
Eu2343     O2345   2.349       .  S
Eu2343     O2351   2.353       .  S
O2344     Eu2373   2.348       .  S
O2345     Eu2371   2.350       .  S
O2345     Eu2372   2.353       .  S
C2346      C2728   1.485       .  S
C2347      C2698   1.482       .  S
C2348      C2558   1.488       .  S
C2349      C2538   1.486       .  S
H2350      O2351   0.966       .  S
O2351     Eu2372   2.350       .  S
O2351     Eu2370   2.350       .  S
H2352      O2353   0.965       .  S
O2353     Eu2373   2.352       .  S
O2354      C2377   1.290       .  A
O2354     Eu2370   2.452       .  S
O2355      C2378   1.291       .  A
O2355     Eu2371   2.455       .  S
O2356      C2379   1.292       .  A
O2356     Eu2372   2.460       .  S
O2357      C2380   1.292       .  A
O2357     Eu2373   2.457       .  S
O2358      C2381   1.291       .  A
O2358     Eu2373   2.454       .  S
O2359      C2382   1.290       .  A
O2359     Eu2372   2.450       .  S
O2360      C2383   1.291       .  A
O2360     Eu2374   2.455       .  S
O2361      C2384   1.292       .  A
O2362      C2383   1.292       .  A
O2362     Eu2372   2.460       .  S
O2363      C2384   1.290       .  A
O2363     Eu2373   2.451       .  S
O2364      C2379   1.290       .  A
O2364     Eu2370   2.450       .  S
O2365      C2382   1.293       .  A
O2365     Eu2371   2.462       .  S
O2366      C2381   1.292       .  A
O2367      C2380   1.290       .  A
O2368      C2377   1.291       .  A
O2368     Eu2374   2.455       .  S
O2369      C2378   1.291       .  A
O2369     Eu2374   2.454       .  S
Eu2370     O2376   2.349       .  S
Eu2371     O2386   2.353       .  S
Eu2372     O2386   2.353       .  S
Eu2372     O2376   2.346       .  S
Eu2373     O2375   2.348       .  S
Eu2373     O2388   2.350       .  S
Eu2374     O2386   2.350       .  S
Eu2374     O2376   2.349       .  S
C2377      C2711   1.481       .  S
C2378      C2721   1.484       .  S
C2379      C2601   1.487       .  S
C2380      C2608   1.487       .  S
C2381      C2578   1.488       .  S
C2382      C2591   1.488       .  S
C2383      C2568   1.489       .  S
C2384      C2548   1.487       .  S
H2385      O2386   0.965       .  S
H2387      O2388   0.966       .  S
O2389      C2400   1.292       .  A
O2389     Eu2425   2.458       .  S
O2390      C2401   1.290       .  A
O2390     Eu2424   2.453       .  S
O2391      C2402   1.292       .  A
O2391     Eu2397   2.462       .  S
O2392      C2403   1.291       .  A
O2392     Eu3309   2.454       .  S
O2393      C2403   1.291       .  A
O2393     Eu2427   2.455       .  S
O2394      C2402   1.291       .  A
O2394     Eu2426   2.456       .  S
O2395      C2401   1.292       .  A
O2395     Eu2397   2.459       .  S
O2396      C2400   1.290       .  A
O2396     Eu2397   2.453       .  S
Eu2397     O3304   2.455       .  S
Eu2397     O3319   2.357       .  S
Eu2397     O2399   2.348       .  S
Eu2397     O3310   2.350       .  S
Eu2397     O2405   2.351       .  S
O2398     Eu3309   2.351       .  S
O2398     Eu2427   2.349       .  S
O2398     Eu3336   2.348       .  S
O2399     Eu2425   2.351       .  S
O2399     Eu2426   2.349       .  S
C2400      C3603   1.486       .  S
C2401      C3590   1.487       .  S
C2402      C2511   1.477       .  S
C2403      C2498   1.474       .  S
H2404      O2405   0.966       .  S
O2405     Eu2426   2.353       .  S
O2405     Eu2424   2.354       .  S
H2406      O2407   0.966       .  S
O2407     Eu3309   2.356       .  S
O2407     Eu3337   2.349       .  S
O2407     Eu2427   2.352       .  S
O2408      C2431   1.292       .  A
O2408     Eu2424   2.456       .  S
O2409      C2432   1.291       .  A
O2409     Eu2425   2.456       .  S
O2410      C2433   1.291       .  A
O2410     Eu2426   2.457       .  S
O2411      C2434   1.290       .  A
O2411     Eu2427   2.451       .  S
O2412      C2435   1.289       .  A
O2412     Eu2427   2.446       .  S
O2413      C2436   1.292       .  A
O2413     Eu2426   2.460       .  S
O2414      C2437   1.292       .  A
O2414     Eu2428   2.461       .  S
O2415      C2438   1.292       .  A
O2415     Eu3340   2.457   1_545  S
O2416      C2437   1.292       .  A
O2416     Eu2426   2.459       .  S
O2417      C2438   1.291       .  A
O2417     Eu2427   2.456       .  S
O2418      C2433   1.292       .  A
O2418     Eu2424   2.458       .  S
O2419      C2436   1.290       .  A
O2419     Eu2425   2.448       .  S
O2420      C2435   1.292       .  A
O2420     Eu3337   2.460       .  S
O2421      C2434   1.292       .  A
O2421     Eu3336   2.462       .  S
O2422      C2431   1.292       .  A
O2422     Eu2428   2.459       .  S
O2423      C2432   1.293       .  A
O2423     Eu2428   2.464       .  S
Eu2424     O3333   2.459       .  S
Eu2424     O3310   2.349       .  S
Eu2424     O3354   2.352       .  S
Eu2424     O2430   2.351       .  S
Eu2425     O3332   2.461       .  S
Eu2425     O3319   2.350       .  S
Eu2425     O3341   2.346       .  S
Eu2425     O2440   2.355       .  S
Eu2426     O2440   2.352       .  S
Eu2426     O2430   2.349       .  S
Eu2427     O2429   2.347       .  S
Eu2427     O2442   2.352       .  S
Eu2428     O3327   2.456       .  S
Eu2428     O3341   2.351       .  S
Eu2428     O2440   2.351       .  S
Eu2428     O3354   2.355       .  S
Eu2428     O2430   2.350       .  S
O2429     Eu3337   2.346       .  S
O2429     Eu3340   2.352   1_545  S
C2431      C3583   1.487       .  S
C2432      C3570   1.491       .  S
C2433      C2571   1.489       .  S
C2434      C2561   1.488       .  S
C2435      C2541   1.486       .  S
C2436      C2551   1.487       .  S
C2437      C2518   1.486       .  S
C2438      C2531   1.488       .  S
H2439      O2440   0.966       .  S
H2441      O2442   0.966       .  S
O2442     Eu3336   2.352       .  S
O2442     Eu3340   2.354   1_545  S
O2443      C2454   1.291       .  A
O2443     Eu2479   2.454       .  S
O2444      C2455   1.290   1_554  A
O2444     Eu2478   2.452       .  S
O2445      C2456   1.290       .  A
O2446      C2457   1.292       .  A
O2446     Eu2451   2.457   1_556  S
O2447      C2457   1.290       .  A
O2447     Eu2481   2.452       .  S
O2448      C2456   1.293       .  A
O2448     Eu2480   2.463       .  S
O2449      C2455   1.291       .  A
O2449     Eu2451   2.451   1_556  S
O2450      C2454   1.291       .  A
O2450     Eu2451   2.457       .  S
Eu2451     O2461   2.351   1_554  S
Eu2451     O2452   2.348   1_554  S
O2452     Eu2481   2.347       .  S
O2452     Eu2478   2.351   1_556  S
O2453     Eu2480   2.351       .  S
C2456      C2588   1.488       .  S
C2457      C2598   1.487       .  S
H2458      O2459   0.965       .  S
O2459     Eu2480   2.352       .  S
H2460      O2461   0.966       .  S
O2461     Eu2479   2.353   1_556  S
O2461     Eu2481   2.354       .  S
O2462      C2485   1.292       .  A
O2462     Eu2478   2.457       .  S
O2463      C2486   1.291       .  A
O2463     Eu2479   2.457   1_556  S
O2464      C2487   1.291       .  A
O2464     Eu2480   2.458       .  S
O2465      C2488   1.292       .  A
O2465     Eu2481   2.461       .  S
O2466      C2489   1.293       .  A
O2466     Eu2481   2.462       .  S
O2467      C2490   1.291       .  A
O2467     Eu2480   2.456       .  S
O2468      C2491   1.290       .  A
O2469      C2492   1.292       .  A
O2469     Eu2482   2.458       .  S
O2470      C2491   1.293       .  A
O2470     Eu2480   2.461       .  S
O2471      C2492   1.290       .  A
O2471     Eu2481   2.451       .  S
O2472      C2487   1.291       .  A
O2473      C2490   1.290       .  A
O2474      C2489   1.290       .  A
O2474     Eu2479   2.451   1_556  S
O2475      C2488   1.292       .  A
O2475     Eu2478   2.460   1_556  S
O2476      C2485   1.291       .  A
O2476     Eu2482   2.456   1_554  S
O2477      C2486   1.291       .  A
O2477     Eu2482   2.454       .  S
Eu2478     O2496   2.349   1_554  S
Eu2479     O2483   2.349   1_554  S
Eu2480     O2494   2.355       .  S
Eu2480     O2484   2.351       .  S
Eu2481     O2483   2.348       .  S
Eu2481     O2496   2.353       .  S
Eu2482     O2483   2.347       .  S
Eu2482     O2496   2.350       .  S
C2487      C2508   1.476       .  S
C2488      C2521   1.486       .  S
C2489      C2528   1.488       .  S
C2490      C2501   1.475       .  S
C2491      C2581   1.488       .  S
C2492      C2611   1.486       .  S
H2493      O2494   0.966       .  S
H2495      O2496   0.965       .  S
C2497      C2498   1.404       .  A
C2497      C2502   1.397       .  A
C2497      H2504   1.084       .  S
C2498      C2499   1.407       .  A
C2499      C2500   1.397       .  A
C2499      F2506   1.358       .  S
C2500      C2501   1.404       .  A
C2500      H2505   1.084       .  S
C2501      C2502   1.407       .  A
C2502      F2503   1.358       .  S
C2507      C2508   1.404       .  A
C2507      C2512   1.399       .  A
C2507      H2514   1.084       .  S
C2508      C2509   1.407       .  A
C2509      C2510   1.398       .  A
C2509      F2516   1.358       .  S
C2510      C2511   1.405       .  A
C2510      H2515   1.084       .  S
C2511      C2512   1.407       .  A
C2512      F2513   1.358       .  S
C2517      C2518   1.407       .  A
C2517      C2522   1.400       .  A
C2517      H2524   1.083       .  S
C2518      C2519   1.410       .  A
C2519      C2520   1.398       .  A
C2519      F2526   1.358       .  S
C2520      C2521   1.406       .  A
C2520      H2525   1.083       .  S
C2521      C2522   1.410       .  A
C2522      F2523   1.358       .  S
C2527      C2528   1.406       .  A
C2527      C2532   1.397       .  A
C2527      H2534   1.083       .  S
C2528      C2529   1.411       .  A
C2529      C2530   1.397       .  A
C2529      F2536   1.358       .  S
C2530      C2531   1.407       .  A
C2530      H2535   1.083       .  S
C2531      C2532   1.411       .  A
C2532      F2533   1.357       .  S
C2537      C2538   1.407       .  A
C2537      C2542   1.397       .  A
C2537      H2544   1.083       .  S
C2538      C2539   1.410       .  A
C2539      C2540   1.396       .  A
C2539      F2546   1.357       .  S
C2540      C2541   1.406       .  A
C2540      H2545   1.083       .  S
C2541      C2542   1.411       .  A
C2542      F2543   1.358       .  S
C2547      C2548   1.406       .  A
C2547      C2552   1.397       .  A
C2547      H2554   1.083       .  S
C2548      C2549   1.411       .  A
C2549      C2550   1.397       .  A
C2549      F2556   1.357       .  S
C2550      C2551   1.406       .  A
C2550      H2555   1.083       .  S
C2551      C2552   1.411       .  A
C2552      F2553   1.358       .  S
C2557      C2558   1.407       .  A
C2557      C2562   1.398       .  A
C2557      H2564   1.083       .  S
C2558      C2559   1.411       .  A
C2559      C2560   1.397       .  A
C2559      F2566   1.357       .  S
C2560      C2561   1.406       .  A
C2560      H2565   1.083       .  S
C2561      C2562   1.411       .  A
C2562      F2563   1.358       .  S
C2567      C2568   1.406       .  A
C2567      C2572   1.397       .  A
C2567      H2574   1.083       .  S
C2568      C2569   1.411       .  A
C2569      C2570   1.398       .  A
C2569      F2576   1.358       .  S
C2570      C2571   1.407       .  A
C2570      H2575   1.083       .  S
C2571      C2572   1.411       .  A
C2572      F2573   1.357       .  S
C2577      C2578   1.407       .  A
C2577      C2582   1.398       .  A
C2577      H2584   1.083       .  S
C2578      C2579   1.411       .  A
C2579      C2580   1.397       .  A
C2579      F2586   1.357       .  S
C2580      C2581   1.406       .  A
C2580      H2585   1.083       .  S
C2581      C2582   1.411       .  A
C2582      F2583   1.358       .  S
C2587      C2588   1.407       .  A
C2587      C2592   1.398       .  A
C2587      H2594   1.083       .  S
C2588      C2589   1.411       .  A
C2589      C2590   1.397       .  A
C2589      F2596   1.357       .  S
C2590      C2591   1.406       .  A
C2590      H2595   1.083       .  S
C2591      C2592   1.411       .  A
C2592      F2593   1.358       .  S
C2597      C2598   1.407       .  A
C2597      C2602   1.398       .  A
C2597      H2604   1.083       .  S
C2598      C2599   1.410       .  A
C2599      C2600   1.396       .  A
C2599      F2606   1.357       .  S
C2600      C2601   1.406       .  A
C2600      H2605   1.083       .  S
C2601      C2602   1.411       .  A
C2602      F2603   1.358       .  S
C2607      C2608   1.407       .  A
C2607      C2612   1.397       .  A
C2607      H2614   1.083       .  S
C2608      C2609   1.411       .  A
C2609      C2610   1.396       .  A
C2609      F2616   1.357       .  S
C2610      C2611   1.406       .  A
C2610      H2615   1.083       .  S
C2611      C2612   1.411       .  A
C2612      F2613   1.358       .  S
C2617      C2618   1.407       .  A
C2617      C2622   1.397       .  A
C2617      H2624   1.083       .  S
C2619      C2620   1.398       .  A
C2619      F2626   1.358       .  S
C2620      H2625   1.083       .  S
C2621      C2622   1.410       .  A
C2622      F2623   1.357       .  S
C2627      C2632   1.397       .  A
C2627      H2634   1.083   1_556  S
C2628      C2629   1.410       .  A
C2629      C2630   1.398       .  A
C2629      F2636   1.358       .  S
C2630      C2631   1.407       .  A
C2630      H2635   1.083       .  S
C2632      F2633   1.358   1_556  S
C2637      C2638   1.407       .  A
C2637      C2642   1.396       .  A
C2637      H2644   1.083       .  S
C2639      C2640   1.396       .  A
C2639      F2646   1.358       .  S
C2640      H2645   1.083       .  S
C2641      C2642   1.410       .  A
C2642      F2643   1.358       .  S
C2647      C2648   1.407       .  A
C2647      C2652   1.397       .  A
C2647      H2654   1.083       .  S
C2649      C2650   1.397       .  A
C2649      F2656   1.358       .  S
C2650      H2655   1.083       .  S
C2651      C2652   1.410       .  A
C2652      F2653   1.357       .  S
C2657      C2658   1.407       .  A
C2657      C2662   1.398       .  A
C2657      H2664   1.083       .  S
C2658      C3344   1.488       .  S
C2658      C3571   1.411       .  A
C2659      C3570   1.412       .  A
C2659      C2660   1.399       .  A
C2659      F2666   1.358       .  S
C2660      C3573   1.407       .  A
C2660      H2665   1.083       .  S
C2661      C3572   1.407       .  A
C2661      C2662   1.411       .  A
C2662      F2663   1.358       .  S
C2667      C3580   1.406       .  A
C2667      C2672   1.398       .  A
C2667      H2674   1.083       .  S
C2668      C3579   1.406   1_565  A
C2668      C2669   1.411       .  A
C2669      C2670   1.399       .  A
C2669      F2676   1.358       .  S
C2670      C2671   1.407   1_565  A
C2670      H2675   1.083       .  S
C2671      C3343   1.488       .  S
C2671      C3584   1.410       .  A
C2672      C3583   1.410       .  A
C2672      F2673   1.358       .  S
C2677      C3590   1.406       .  A
C2677      C2682   1.397       .  A
C2677      H2684   1.083       .  S
C2678      C3313   1.486       .  S
C2678      C3589   1.406   1_545  A
C2678      C2679   1.411       .  A
C2679      C2680   1.397       .  A
C2679      F2686   1.358       .  S
C2680      C2681   1.406       .  A
C2680      H2685   1.083       .  S
C2681      C3594   1.411   1_545  A
C2682      C3593   1.411       .  A
C2682      F2683   1.358       .  S
C2687      C3600   1.406       .  A
C2687      C2692   1.396       .  A
C2687      H2694   1.083       .  S
C2688      C3599   1.406   1_565  A
C2688      C2689   1.410       .  A
C2689      C2690   1.398       .  A
C2689      F2696   1.358       .  S
C2690      C2691   1.407       .  A
C2690      H2695   1.083       .  S
C2691      C3312   1.486       .  S
C2691      C3604   1.410   1_565  A
C2692      C3603   1.410       .  A
C2692      F2693   1.358       .  S
C2697      C2698   1.406       .  A
C2697      C2702   1.396       .  A
C2697      H2704   1.083       .  S
C2699      C2700   1.397       .  A
C2699      F2706   1.358       .  S
C2700      H2705   1.083       .  S
C2701      C2702   1.409       .  A
C2702      F2703   1.358       .  S
C2707      C2712   1.398       .  A
C2707      H2714   1.083       .  S
C2708      C2709   1.408       .  A
C2709      C2710   1.395       .  A
C2709      F2716   1.358       .  S
C2710      C2711   1.405       .  A
C2710      H2715   1.083       .  S
C2712      F2713   1.358       .  S
C2717      C2722   1.397       .  A
C2717      H2724   1.083       .  S
C2718      C2719   1.409       .  A
C2719      C2720   1.397       .  A
C2719      F2726   1.358       .  S
C2720      C2721   1.406       .  A
C2720      H2725   1.083       .  S
C2722      F2723   1.358       .  S
C2727      C2732   1.398       .  A
C2727      H2734   1.083       .  S
C2728      C2729   1.409       .  A
C2729      C2730   1.398       .  A
C2729      F2736   1.358       .  S
C2730      C2731   1.406       .  A
C2730      H2735   1.083       .  S
C2732      F2733   1.358       .  S
O2737      C2748   1.291       .  A
O2737     Eu2773   2.454       .  S
O2738      C2749   1.291       .  A
O2738     Eu2772   2.454       .  S
O2739      C2750   1.292       .  A
O2739     Eu2745   2.457       .  S
O2740      C2751   1.291       .  A
O2741      C2751   1.292       .  A
O2741     Eu2775   2.459   1_556  S
O2742      C2750   1.290       .  A
O2742     Eu2774   2.454   1_554  S
O2743      C2749   1.290       .  A
O2743     Eu3201   2.452       .  S
O2744      C2748   1.292       .  A
O2744     Eu2745   2.457       .  S
Eu2745     O3199   2.453   1_554  S
Eu2745     O2747   2.349       .  S
Eu2745     O3209   2.351   1_554  S
O2746     Eu3231   2.347       .  S
O2747     Eu2773   2.349       .  S
O2747     Eu2774   2.351   1_554  S
C2748      C3187   1.485       .  S
C2749      C3157   1.485       .  S
C2750      C3104   1.487       .  S
C2751      C3087   1.488       .  S
H2752      O2753   0.966       .  S
O2753     Eu3201   2.351       .  S
O2753     Eu3230   2.349       .  S
O2753     Eu2772   2.353       .  S
H2754      O2755   0.966       .  S
O2755     Eu2775   2.353       .  S
O2756      C2779   1.290       .  A
O2757      C2780   1.291       .  A
O2758      C2781   1.293       .  A
O2758     Eu3230   2.462       .  S
O2759      C2782   1.291       .  A
O2759     Eu3231   2.457       .  S
O2760      C2783   1.292       .  A
O2760     Eu2775   2.455       .  S
O2761      C2784   1.290       .  A
O2761     Eu2774   2.452   1_554  S
O2762      C2785   1.291       .  A
O2762     Eu2776   2.456       .  S
O2763      C2786   1.292       .  A
O2764      C2785   1.291       .  A
O2765      C2786   1.291       .  A
O2766      C2781   1.291       .  A
O2766     Eu2772   2.456       .  S
O2767      C2784   1.292       .  A
O2767     Eu2773   2.457       .  S
O2768      C2783   1.291       .  A
O2769      C2782   1.292       .  A
O2770      C2779   1.291       .  A
O2770     Eu3232   2.453       .  S
O2771      C2780   1.290       .  A
O2771     Eu2776   2.452   1_554  S
Eu2774     O3214   2.462       .  S
Eu2774     O3209   2.347       .  S
Eu2775     O3215   2.458   1_554  S
Eu2775     O3202   2.347   1_554  S
Eu2776     O3226   2.450       .  S
Eu2776     O2788   2.351   1_556  S
Eu2776     O3234   2.350       .  S
O2778     Eu3232   2.350       .  S
C2779      C3164   1.481       .  S
C2780      C3174   1.485       .  S
C2781      C3124   1.488       .  S
C2782      C3117   1.490       .  S
C2783      C3144   1.485       .  S
C2784      C3137   1.485       .  S
C2785      C3094   1.486       .  S
C2786      C3074   1.487       .  S
H2787      O2788   0.966       .  S
H2789      O2790   0.965       .  S
O2791      C2802   1.291       .  A
O2791     Eu2827   2.456       .  S
O2792      C2803   1.292       .  A
O2792     Eu2826   2.458       .  S
O2793      C2804   1.290       .  A
O2793     Eu2799   2.454       .  S
O2794      C2805   1.291       .  A
O2795      C2805   1.291       .  A
O2795     Eu2829   2.451       .  S
O2796      C2804   1.292       .  A
O2796     Eu2828   2.460       .  S
O2797      C2803   1.290       .  A
O2797     Eu2799   2.450       .  S
O2798      C2802   1.292       .  A
O2798     Eu2799   2.458       .  S
Eu2799     O2801   2.348       .  S
Eu2799     O2807   2.355       .  S
O2800     Eu2829   2.348       .  S
O2801     Eu2827   2.350       .  S
O2801     Eu2828   2.353       .  S
C2802      C3184   1.485       .  S
C2803      C3154   1.485       .  S
C2804      C3014   1.488       .  S
C2805      C2994   1.487       .  S
H2806      O2807   0.966       .  S
O2807     Eu2828   2.351       .  S
O2807     Eu2826   2.350       .  S
H2808      O2809   0.966       .  S
O2809     Eu2829   2.352       .  S
O2810      C2833   1.290       .  A
O2810     Eu2826   2.451       .  S
O2811      C2834   1.291       .  A
O2811     Eu2827   2.454       .  S
O2812      C2835   1.293       .  A
O2812     Eu2828   2.464       .  S
O2813      C2836   1.292       .  A
O2813     Eu2829   2.456       .  S
O2814      C2837   1.291       .  A
O2814     Eu2829   2.454       .  S
O2815      C2838   1.290       .  A
O2815     Eu2828   2.450       .  S
O2816      C2839   1.291       .  A
O2816     Eu2830   2.455       .  S
O2817      C2840   1.292       .  A
O2818      C2839   1.292       .  A
O2818     Eu2828   2.460       .  S
O2819      C2840   1.290       .  A
O2819     Eu2829   2.451       .  S
O2820      C2835   1.290       .  A
O2820     Eu2826   2.453       .  S
O2821      C2838   1.293       .  A
O2821     Eu2827   2.463       .  S
O2822      C2837   1.293       .  A
O2823      C2836   1.290       .  A
O2824      C2833   1.292       .  A
O2824     Eu2830   2.455       .  S
O2825      C2834   1.291       .  A
O2825     Eu2830   2.455       .  S
Eu2826     O2832   2.348       .  S
Eu2827     O2842   2.353       .  S
Eu2828     O2842   2.354       .  S
Eu2828     O2832   2.346       .  S
Eu2829     O2831   2.348       .  S
Eu2829     O2844   2.350       .  S
Eu2830     O2842   2.350       .  S
Eu2830     O2832   2.351       .  S
C2833      C3167   1.481       .  S
C2834      C3177   1.485       .  S
C2835      C3057   1.490       .  S
C2836      C3064   1.486       .  S
C2837      C3034   1.489       .  S
C2838      C3047   1.488       .  S
C2839      C3024   1.489       .  S
C2840      C3004   1.487       .  S
H2841      O2842   0.965       .  S
H2843      O2844   0.966       .  S
O2845      C2856   1.292       .  A
O2845     Eu2881   2.456   1_565  S
O2846      C2857   1.291       .  A
O2846     Eu2880   2.455       .  S
O2847      C2858   1.291       .  A
O2847     Eu2853   2.459   1_565  S
O2848      C2859   1.291       .  A
O2849      C2859   1.291       .  A
O2849     Eu2883   2.455       .  S
O2850      C2858   1.291       .  A
O2850     Eu2882   2.458       .  S
O2851      C2857   1.292       .  A
O2851     Eu2853   2.458       .  S
O2852      C2856   1.291       .  A
O2852     Eu2853   2.455   1_565  S
Eu2853     O2855   2.347   1_545  S
Eu2853     O2861   2.352   1_545  S
O2854     Eu2883   2.349       .  S
O2855     Eu2881   2.350   1_565  S
O2855     Eu2882   2.349       .  S
C2858      C2967   1.476       .  S
C2859      C2954   1.475       .  S
H2860      O2861   0.966       .  S
O2861     Eu2882   2.353       .  S
O2861     Eu2880   2.354   1_565  S
H2862      O2863   0.966       .  S
O2863     Eu2883   2.352       .  S
O2864      C2887   1.292       .  A
O2864     Eu2880   2.458       .  S
O2865      C2888   1.291       .  A
O2865     Eu2881   2.457   1_565  S
O2866      C2889   1.291       .  A
O2866     Eu2882   2.456       .  S
O2867      C2890   1.290       .  A
O2867     Eu2883   2.451       .  S
O2868      C2891   1.289       .  A
O2868     Eu2883   2.447       .  S
O2869      C2892   1.292       .  A
O2869     Eu2882   2.460       .  S
O2870      C2893   1.292       .  A
O2870     Eu2884   2.459   1_565  S
O2871      C2894   1.292       .  A
O2872      C2893   1.292       .  A
O2872     Eu2882   2.460       .  S
O2873      C2894   1.291       .  A
O2873     Eu2883   2.455       .  S
O2874      C2889   1.292       .  A
O2874     Eu2880   2.458   1_565  S
O2875      C2892   1.289       .  A
O2875     Eu2881   2.447   1_565  S
O2876      C2891   1.292       .  A
O2877      C2890   1.293       .  A
O2878      C2887   1.292       .  A
O2878     Eu2884   2.460       .  S
O2879      C2888   1.293       .  A
O2879     Eu2884   2.465   1_565  S
Eu2880     O2886   2.350   1_545  S
Eu2881     O2896   2.354   1_545  S
Eu2882     O2896   2.352       .  S
Eu2882     O2886   2.349       .  S
Eu2883     O2885   2.348       .  S
Eu2883     O2898   2.352       .  S
Eu2884     O2896   2.351   1_545  S
Eu2884     O2886   2.351   1_545  S
C2889      C3027   1.489       .  S
C2890      C3017   1.488       .  S
C2891      C2997   1.487       .  S
C2892      C3007   1.487       .  S
C2893      C2974   1.490       .  S
C2894      C2987   1.488       .  S
H2895      O2896   0.966       .  S
H2897      O2898   0.966       .  S
O2899      C2910   1.291       .  A
O2899     Eu2935   2.455       .  S
O2900      C2911   1.291       .  A
O2900     Eu2934   2.454       .  S
O2901      C2912   1.290       .  A
O2901     Eu3363   2.453       .  S
O2902      C2913   1.292       .  A
O2902     Eu2907   2.461       .  S
O2903      C2913   1.291       .  A
O2903     Eu2937   2.454       .  S
O2904      C2912   1.293       .  A
O2904     Eu2936   2.464       .  S
O2905      C2911   1.291       .  A
O2905     Eu2907   2.451       .  S
O2906      C2910   1.291       .  A
O2906     Eu2907   2.458       .  S
Eu2907     O3357   2.451       .  S
Eu2907     O2917   2.350       .  S
Eu2907     O3365   2.350       .  S
Eu2907     O2908   2.346       .  S
Eu2907     O3371   2.355       .  S
O2908     Eu2937   2.345       .  S
O2908     Eu2934   2.350       .  S
O2909     Eu3363   2.350       .  S
O2909     Eu3391   2.351       .  S
O2909     Eu2936   2.351       .  S
C2910      C3563   1.488       .  S
C2911      C3553   1.486       .  S
C2912      C3044   1.489       .  S
C2913      C3054   1.490       .  S
H2914      O2915   0.966       .  S
O2915     Eu3363   2.352       .  S
O2915     Eu2936   2.352       .  S
O2915     Eu3390   2.353       .  S
H2916      O2917   0.966       .  S
O2917     Eu2935   2.354       .  S
O2917     Eu2937   2.354       .  S
O2918      C2941   1.292       .  A
O2918     Eu2934   2.456       .  S
O2919      C2942   1.291       .  A
O2919     Eu2935   2.458       .  S
O2920      C2943   1.291       .  A
O2920     Eu2936   2.458       .  S
O2921      C2944   1.292       .  A
O2921     Eu2937   2.461       .  S
O2922      C2945   1.293       .  A
O2922     Eu2937   2.462       .  S
O2923      C2946   1.291       .  A
O2923     Eu2936   2.458       .  S
O2924      C2947   1.291       .  A
O2924     Eu3394   2.454   1_554  S
O2925      C2948   1.291       .  A
O2925     Eu2938   2.455       .  S
O2926      C2947   1.292       .  A
O2926     Eu2936   2.460       .  S
O2927      C2948   1.290       .  A
O2927     Eu2937   2.452       .  S
O2928      C2943   1.291       .  A
O2928     Eu3390   2.458       .  S
O2929      C2946   1.291       .  A
O2929     Eu3391   2.455       .  S
O2930      C2945   1.290       .  A
O2930     Eu2935   2.451       .  S
O2931      C2944   1.291       .  A
O2931     Eu2934   2.459       .  S
O2932      C2941   1.291       .  A
O2932     Eu2938   2.457       .  S
O2933      C2942   1.291       .  A
O2933     Eu2938   2.453       .  S
Eu2934     O3384   2.459       .  S
Eu2934     O3371   2.352       .  S
Eu2934     O2952   2.350       .  S
Eu2934     O3396   2.349       .  S
Eu2935     O3385   2.456       .  S
Eu2935     O3365   2.349       .  S
Eu2935     O2939   2.350       .  S
Eu2935     O3406   2.351       .  S
Eu2936     O2950   2.355       .  S
Eu2936     O2940   2.351       .  S
Eu2937     O2939   2.349       .  S
Eu2937     O2952   2.353       .  S
Eu2938     O3380   2.452       .  S
Eu2938     O2939   2.348       .  S
Eu2938     O3406   2.353       .  S
Eu2938     O2952   2.350       .  S
Eu2938     O3396   2.349       .  S
O2940     Eu3390   2.351       .  S
O2940     Eu3394   2.351   1_554  S
C2941      C3533   1.488       .  S
C2942      C3540   1.487       .  S
C2943      C2964   1.476       .  S
C2944      C2977   1.490       .  S
C2945      C2984   1.488       .  S
C2946      C2957   1.476       .  S
C2947      C3037   1.488       .  S
C2948      C3067   1.486       .  S
H2949      O2950   0.966       .  S
O2950     Eu3391   2.350       .  S
O2950     Eu3394   2.354   1_554  S
H2951      O2952   0.965       .  S
C2953      C2954   1.404       .  A
C2953      C2958   1.398       .  A
C2953      H2960   1.084       .  S
C2954      C2955   1.407       .  A
C2955      C2956   1.398       .  A
C2955      F2962   1.358       .  S
C2956      C2957   1.404       .  A
C2956      H2961   1.084       .  S
C2957      C2958   1.407       .  A
C2958      F2959   1.358       .  S
C2963      C2964   1.404       .  A
C2963      C2968   1.399       .  A
C2963      H2970   1.084       .  S
C2964      C2965   1.407       .  A
C2965      C2966   1.398       .  A
C2965      F2972   1.358       .  S
C2966      C2967   1.404       .  A
C2966      H2971   1.084       .  S
C2967      C2968   1.407       .  A
C2968      F2969   1.358       .  S
C2973      C2974   1.408       .  A
C2973      C2978   1.399       .  A
C2973      H2980   1.083       .  S
C2974      C2975   1.411       .  A
C2975      C2976   1.398       .  A
C2975      F2982   1.357       .  S
C2976      C2977   1.407       .  A
C2976      H2981   1.083       .  S
C2977      C2978   1.411       .  A
C2978      F2979   1.358       .  S
C2983      C2984   1.406       .  A
C2983      C2988   1.397       .  A
C2983      H2990   1.083       .  S
C2984      C2985   1.411       .  A
C2985      C2986   1.397       .  A
C2985      F2992   1.358       .  S
C2986      C2987   1.407       .  A
C2986      H2991   1.083       .  S
C2987      C2988   1.411       .  A
C2988      F2989   1.357       .  S
C2993      C2994   1.407       .  A
C2993      C2998   1.397       .  A
C2993      H3000   1.083       .  S
C2994      C2995   1.410       .  A
C2995      C2996   1.396       .  A
C2995      F3002   1.357       .  S
C2996      C2997   1.406       .  A
C2996      H3001   1.083       .  S
C2997      C2998   1.411       .  A
C2998      F2999   1.358       .  S
C3003      C3004   1.406       .  A
C3003      C3008   1.396       .  A
C3003      H3010   1.083       .  S
C3004      C3005   1.411       .  A
C3005      C3006   1.397       .  A
C3005      F3012   1.357       .  S
C3006      C3007   1.406       .  A
C3006      H3011   1.083       .  S
C3007      C3008   1.411       .  A
C3008      F3009   1.358       .  S
C3013      C3014   1.407       .  A
C3013      C3018   1.398       .  A
C3013      H3020   1.083       .  S
C3014      C3015   1.411       .  A
C3015      C3016   1.397       .  A
C3015      F3022   1.357       .  S
C3016      C3017   1.406       .  A
C3016      H3021   1.083       .  S
C3017      C3018   1.411       .  A
C3018      F3019   1.358       .  S
C3023      C3024   1.406       .  A
C3023      C3028   1.397       .  A
C3023      H3030   1.083       .  S
C3024      C3025   1.411       .  A
C3025      C3026   1.398       .  A
C3025      F3032   1.358       .  S
C3026      C3027   1.407       .  A
C3026      H3031   1.083       .  S
C3027      C3028   1.411       .  A
C3028      F3029   1.357       .  S
C3033      C3034   1.407       .  A
C3033      C3038   1.398       .  A
C3033      H3040   1.083       .  S
C3034      C3035   1.411       .  A
C3035      C3036   1.397       .  A
C3035      F3042   1.358       .  S
C3036      C3037   1.406       .  A
C3036      H3041   1.083       .  S
C3037      C3038   1.411       .  A
C3038      F3039   1.358       .  S
C3043      C3044   1.407       .  A
C3043      C3048   1.398       .  A
C3043      H3050   1.083       .  S
C3044      C3045   1.411       .  A
C3045      C3046   1.397       .  A
C3045      F3052   1.357       .  S
C3046      C3047   1.406       .  A
C3046      H3051   1.083       .  S
C3047      C3048   1.412       .  A
C3048      F3049   1.358       .  S
C3053      C3054   1.407       .  A
C3053      C3058   1.399       .  A
C3053      H3060   1.083       .  S
C3054      C3055   1.411       .  A
C3055      C3056   1.397       .  A
C3055      F3062   1.357       .  S
C3056      C3057   1.406       .  A
C3056      H3061   1.083       .  S
C3057      C3058   1.412       .  A
C3058      F3059   1.358       .  S
C3063      C3064   1.407       .  A
C3063      C3068   1.397       .  A
C3063      H3070   1.083       .  S
C3064      C3065   1.410       .  A
C3065      C3066   1.396       .  A
C3065      F3072   1.358       .  S
C3066      C3067   1.406       .  A
C3066      H3071   1.083       .  S
C3067      C3068   1.410       .  A
C3068      F3069   1.358       .  S
C3073      C3074   1.407       .  A
C3073      C3078   1.398       .  A
C3073      H3080   1.083       .  S
C3074      C3531   1.411   1_554  A
C3075      C3530   1.411       .  A
C3075      C3076   1.398       .  A
C3075      F3082   1.358       .  S
C3076      C3533   1.407       .  A
C3076      H3081   1.083       .  S
C3077      C3397   1.488       .  S
C3077      C3532   1.407   1_554  A
C3077      C3078   1.410       .  A
C3078      F3079   1.357       .  S
C3083      C3540   1.407       .  A
C3083      C3088   1.397       .  A
C3083      H3090   1.083       .  S
C3084      C3398   1.488       .  S
C3084      C3539   1.407   1_556  A
C3084      C3085   1.410       .  A
C3085      C3086   1.399       .  A
C3085      F3092   1.358       .  S
C3086      C3087   1.408       .  A
C3086      H3091   1.083       .  S
C3087      C3544   1.410   1_556  A
C3088      C3543   1.410       .  A
C3088      F3089   1.358       .  S
C3093      C3094   1.407   1_554  A
C3093      C3098   1.396       .  A
C3093      H3100   1.083       .  S
C3094      C3551   1.410       .  A
C3095      C3550   1.410       .  A
C3095      C3096   1.397       .  A
C3095      F3102   1.358       .  S
C3096      C3553   1.407       .  A
C3096      H3101   1.083       .  S
C3097      C3367   1.485       .  S
C3097      C3552   1.407       .  A
C3097      C3098   1.410   1_556  A
C3098      F3099   1.358       .  S
C3103      C3104   1.406   1_556  A
C3103      C3108   1.397       .  A
C3103      H3110   1.083       .  S
C3104      C3561   1.411       .  A
C3105      C3560   1.411       .  A
C3105      C3106   1.398       .  A
C3105      F3112   1.358       .  S
C3106      C3563   1.407       .  A
C3106      H3111   1.083       .  S
C3107      C3366   1.487       .  S
C3107      C3562   1.407       .  A
C3107      C3108   1.410   1_554  A
C3108      F3109   1.357       .  S
C3113      C3114   1.407       .  A
C3113      C3118   1.398       .  A
C3113      H3120   1.083       .  S
C3115      C3116   1.399       .  A
C3115      F3122   1.358       .  S
C3116      H3121   1.083       .  S
C3117      C3118   1.411       .  A
C3118      F3119   1.357       .  S
C3123      C3128   1.398       .  A
C3123      H3130   1.083       .  S
C3124      C3125   1.411       .  A
C3125      C3126   1.399       .  A
C3125      F3132   1.358       .  S
C3126      C3127   1.407       .  A
C3126      H3131   1.083       .  S
C3128      F3129   1.358       .  S
C3133      C3138   1.397       .  A
C3133      H3140   1.083       .  S
C3134      C3135   1.410       .  A
C3135      C3136   1.396       .  A
C3135      F3142   1.358       .  S
C3136      C3137   1.406       .  A
C3136      H3141   1.083       .  S
C3138      F3139   1.358       .  S
C3143      C3148   1.396       .  A
C3143      H3150   1.083       .  S
C3144      C3145   1.410       .  A
C3145      C3146   1.398       .  A
C3145      F3152   1.358       .  S
C3146      C3147   1.407       .  A
C3146      H3151   1.083       .  S
C3148      F3149   1.357       .  S
C3153      C3154   1.406       .  A
C3153      C3158   1.396       .  A
C3153      H3160   1.083       .  S
C3155      C3156   1.397       .  A
C3155      F3162   1.358       .  S
C3156      H3161   1.083       .  S
C3157      C3158   1.410       .  A
C3158      F3159   1.358       .  S
C3163      C3168   1.397       .  A
C3163      H3170   1.083       .  S
C3164      C3165   1.409       .  A
C3165      C3166   1.396       .  A
C3165      F3172   1.358       .  S
C3166      C3167   1.405       .  A
C3166      H3171   1.083       .  S
C3168      F3169   1.358       .  S
C3173      C3178   1.397       .  A
C3173      H3180   1.083       .  S
C3174      C3175   1.410       .  A
C3175      C3176   1.397       .  A
C3175      F3182   1.358       .  S
C3176      C3177   1.406       .  A
C3176      H3181   1.083       .  S
C3178      F3179   1.358       .  S
C3183      C3188   1.397       .  A
C3183      H3190   1.083       .  S
C3184      C3185   1.410       .  A
C3185      C3186   1.397       .  A
C3185      F3192   1.358       .  S
C3186      C3187   1.406       .  A
C3186      H3191   1.083       .  S
C3188      F3189   1.358       .  S
O3193      C3204   1.291       .  A
O3193     Eu3229   2.454       .  S
O3194      C3205   1.291       .  A
O3194     Eu3228   2.452       .  S
O3195      C3206   1.292       .  A
O3195     Eu3201   2.459       .  S
O3196      C3207   1.291       .  A
O3197      C3207   1.292       .  A
O3197     Eu3231   2.456       .  S
O3198      C3206   1.290       .  A
O3198     Eu3230   2.454       .  S
O3199      C3205   1.291       .  A
O3200      C3204   1.292       .  A
O3200     Eu3201   2.457       .  S
Eu3201     O3203   2.348       .  S
O3203     Eu3229   2.350       .  S
O3203     Eu3230   2.351       .  S
C3204      C3643   1.483       .  S
C3205      C3613   1.485       .  S
C3206      C3560   1.488       .  S
C3207      C3543   1.487       .  S
H3208      O3209   0.965       .  S
O3209     Eu3228   2.353       .  S
H3210      O3211   0.966       .  S
O3211     Eu3231   2.351       .  S
O3212      C3235   1.290       .  A
O3213      C3236   1.291       .  A
O3214      C3237   1.293       .  A
O3215      C3238   1.291       .  A
O3216      C3239   1.291       .  A
O3216     Eu3231   2.454       .  S
O3217      C3240   1.290       .  A
O3217     Eu3230   2.453       .  S
O3218      C3241   1.291       .  A
O3218     Eu3232   2.456       .  S
O3219      C3242   1.292       .  A
O3220      C3241   1.291       .  A
O3221      C3242   1.291       .  A
O3222      C3237   1.291       .  A
O3222     Eu3228   2.455       .  S
O3223      C3240   1.292       .  A
O3223     Eu3229   2.458       .  S
O3224      C3239   1.290       .  A
O3225      C3238   1.292       .  A
O3226      C3235   1.290       .  A
O3227      C3236   1.291       .  A
O3227     Eu3232   2.455       .  S
Eu3232     O3244   2.353       .  S
C3235      C3620   1.482       .  S
C3236      C3630   1.484       .  S
C3237      C3580   1.487       .  S
C3238      C3573   1.491       .  S
C3239      C3600   1.486       .  S
C3240      C3593   1.487       .  S
C3241      C3550   1.486       .  S
C3242      C3530   1.488       .  S
H3243      O3244   0.966       .  S
H3245      O3246   0.966       .  S
O3247      C3258   1.291       .  A
O3247     Eu3283   2.455       .  S
O3248      C3259   1.292       .  A
O3248     Eu3282   2.456       .  S
O3249      C3260   1.290       .  A
O3249     Eu3255   2.453       .  S
O3250      C3261   1.291       .  A
O3251      C3261   1.291       .  A
O3251     Eu3285   2.452       .  S
O3252      C3260   1.292       .  A
O3252     Eu3284   2.457       .  S
O3253      C3259   1.290       .  A
O3253     Eu3255   2.451       .  S
O3254      C3258   1.292       .  A
O3254     Eu3255   2.458       .  S
Eu3255     O3257   2.349       .  S
Eu3255     O3263   2.354       .  S
O3256     Eu3285   2.349       .  S
O3257     Eu3283   2.349       .  S
O3257     Eu3284   2.353       .  S
C3258      C3640   1.484       .  S
C3259      C3610   1.486       .  S
C3260      C3470   1.485       .  S
C3261      C3450   1.487       .  S
H3262      O3263   0.966       .  S
O3263     Eu3284   2.351       .  S
O3263     Eu3282   2.350       .  S
H3264      O3265   0.965       .  S
O3265     Eu3285   2.352       .  S
O3266      C3289   1.290       .  A
O3266     Eu3282   2.449       .  S
O3267      C3290   1.291       .  A
O3267     Eu3283   2.455       .  S
O3268      C3291   1.292       .  A
O3268     Eu3284   2.460       .  S
O3269      C3292   1.292       .  A
O3269     Eu3285   2.458       .  S
O3270      C3293   1.291       .  A
O3270     Eu3285   2.454       .  S
O3271      C3294   1.290       .  A
O3271     Eu3284   2.449       .  S
O3272      C3295   1.291       .  A
O3272     Eu3286   2.456       .  S
O3273      C3296   1.291       .  A
O3274      C3295   1.292       .  A
O3274     Eu3284   2.461       .  S
O3275      C3296   1.290       .  A
O3275     Eu3285   2.453       .  S
O3276      C3291   1.290       .  A
O3276     Eu3282   2.450       .  S
O3277      C3294   1.293       .  A
O3277     Eu3283   2.463       .  S
O3278      C3293   1.292       .  A
O3279      C3292   1.290       .  A
O3280      C3289   1.291       .  A
O3280     Eu3286   2.454       .  S
O3281      C3290   1.291       .  A
O3281     Eu3286   2.456       .  S
Eu3282     O3288   2.350       .  S
Eu3283     O3298   2.353       .  S
Eu3284     O3298   2.352       .  S
Eu3284     O3288   2.345       .  S
Eu3285     O3287   2.349       .  S
Eu3285     O3300   2.348       .  S
Eu3286     O3298   2.349       .  S
Eu3286     O3288   2.350       .  S
C3289      C3623   1.482       .  S
C3290      C3633   1.484       .  S
C3291      C3513   1.487       .  S
C3292      C3520   1.488       .  S
C3293      C3490   1.488       .  S
C3294      C3503   1.487       .  S
C3295      C3480   1.490       .  S
C3296      C3460   1.487       .  S
H3297      O3298   0.965       .  S
H3299      O3300   0.966       .  S
O3301      C3312   1.292       .  A
O3301     Eu3337   2.460   1_565  S
O3302      C3313   1.290       .  A
O3302     Eu3336   2.450       .  S
O3303      C3314   1.292       .  A
O3303     Eu3309   2.461   1_565  S
O3304      C3315   1.291       .  A
O3305      C3315   1.291       .  A
O3305     Eu3339   2.455       .  S
O3306      C3314   1.291       .  A
O3306     Eu3338   2.454       .  S
O3307      C3313   1.292       .  A
O3307     Eu3309   2.459       .  S
O3308      C3312   1.290       .  A
O3308     Eu3309   2.453   1_565  S
Eu3309     O3311   2.348   1_545  S
Eu3309     O3317   2.351   1_545  S
O3310     Eu3339   2.349       .  S
O3311     Eu3337   2.349   1_565  S
O3311     Eu3338   2.349       .  S
C3314      C3423   1.476       .  S
C3315      C3410   1.475       .  S
H3316      O3317   0.966       .  S
O3317     Eu3338   2.355       .  S
O3317     Eu3336   2.355   1_565  S
H3318      O3319   0.966       .  S
O3319     Eu3339   2.351       .  S
O3320      C3343   1.291       .  A
O3320     Eu3336   2.455       .  S
O3321      C3344   1.291   1_545  A
O3321     Eu3337   2.454       .  S
O3322      C3345   1.291       .  A
O3322     Eu3338   2.457       .  S
O3323      C3346   1.290       .  A
O3323     Eu3339   2.449       .  S
O3324      C3347   1.289       .  A
O3324     Eu3339   2.448       .  S
O3325      C3348   1.293       .  A
O3325     Eu3338   2.462       .  S
O3326      C3349   1.292       .  A
O3326     Eu3340   2.463       .  S
O3327      C3350   1.292       .  A
O3328      C3349   1.292       .  A
O3328     Eu3338   2.461       .  S
O3329      C3350   1.291       .  A
O3329     Eu3339   2.455       .  S
O3330      C3345   1.292       .  A
O3330     Eu3336   2.459   1_565  S
O3331      C3348   1.289       .  A
O3331     Eu3337   2.447   1_565  S
O3332      C3347   1.292       .  A
O3333      C3346   1.292       .  A
O3334      C3343   1.292       .  A
O3334     Eu3340   2.461   1_545  S
O3335      C3344   1.292       .  A
O3335     Eu3340   2.459       .  S
Eu3336     O3342   2.350   1_545  S
Eu3337     O3352   2.356   1_545  S
Eu3338     O3352   2.350       .  S
Eu3338     O3342   2.349       .  S
Eu3339     O3341   2.347       .  S
Eu3339     O3354   2.351       .  S
Eu3340     O3352   2.352       .  S
Eu3340     O3342   2.348       .  S
C3345      C3483   1.489       .  S
C3346      C3473   1.485       .  S
C3347      C3453   1.487       .  S
C3348      C3463   1.487       .  S
C3349      C3430   1.484       .  S
C3350      C3443   1.487       .  S
H3351      O3352   0.965       .  S
H3353      O3354   0.966       .  S
O3355      C3366   1.291       .  A
O3355     Eu3391   2.454       .  S
O3356      C3367   1.291   1_554  A
O3356     Eu3390   2.454       .  S
O3357      C3368   1.290       .  A
O3358      C3369   1.292       .  A
O3358     Eu3363   2.457   1_556  S
O3359      C3369   1.290       .  A
O3359     Eu3393   2.453       .  S
O3360      C3368   1.293       .  A
O3360     Eu3392   2.462       .  S
O3361      C3367   1.291       .  A
O3361     Eu3363   2.452   1_556  S
O3362      C3366   1.291       .  A
O3362     Eu3363   2.456       .  S
Eu3363     O3373   2.351   1_554  S
Eu3363     O3364   2.348   1_554  S
O3364     Eu3393   2.347       .  S
O3364     Eu3390   2.349   1_556  S
O3365     Eu3392   2.351       .  S
C3368      C3500   1.488       .  S
C3369      C3510   1.487       .  S
H3370      O3371   0.966       .  S
O3371     Eu3392   2.353       .  S
H3372      O3373   0.966       .  S
O3373     Eu3391   2.354   1_556  S
O3373     Eu3393   2.355       .  S
O3374      C3397   1.292       .  A
O3374     Eu3390   2.456       .  S
O3375      C3398   1.292       .  A
O3375     Eu3391   2.461   1_556  S
O3376      C3399   1.291       .  A
O3376     Eu3392   2.456       .  S
O3377      C3400   1.292       .  A
O3377     Eu3393   2.461       .  S
O3378      C3401   1.292       .  A
O3378     Eu3393   2.459       .  S
O3379      C3402   1.291       .  A
O3379     Eu3392   2.456       .  S
O3380      C3403   1.290       .  A
O3381      C3404   1.292       .  A
O3381     Eu3394   2.459       .  S
O3382      C3403   1.293       .  A
O3382     Eu3392   2.461       .  S
O3383      C3404   1.290       .  A
O3383     Eu3393   2.453       .  S
O3384      C3399   1.291       .  A
O3385      C3402   1.291       .  A
O3386      C3401   1.290       .  A
O3386     Eu3391   2.451   1_556  S
O3387      C3400   1.292       .  A
O3387     Eu3390   2.464   1_556  S
O3388      C3397   1.291       .  A
O3388     Eu3394   2.456   1_554  S
O3389      C3398   1.292       .  A
O3389     Eu3394   2.458       .  S
Eu3390     O3408   2.350   1_554  S
Eu3391     O3395   2.350   1_554  S
Eu3392     O3406   2.354       .  S
Eu3392     O3396   2.351       .  S
Eu3393     O3395   2.350       .  S
Eu3393     O3408   2.352       .  S
Eu3394     O3395   2.347       .  S
Eu3394     O3408   2.352       .  S
C3399      C3420   1.475       .  S
C3400      C3433   1.484       .  S
C3401      C3440   1.487       .  S
C3402      C3413   1.475       .  S
C3403      C3493   1.488       .  S
C3404      C3523   1.488       .  S
H3405      O3406   0.966       .  S
H3407      O3408   0.965       .  S
C3409      C3410   1.404       .  A
C3409      C3414   1.397       .  A
C3409      H3416   1.084       .  S
C3410      C3411   1.407       .  A
C3411      C3412   1.397       .  A
C3411      F3418   1.358       .  S
C3412      C3413   1.404       .  A
C3412      H3417   1.084       .  S
C3413      C3414   1.407       .  A
C3414      F3415   1.358       .  S
C3419      C3420   1.404       .  A
C3419      C3424   1.399       .  A
C3419      H3426   1.084       .  S
C3420      C3421   1.407       .  A
C3421      C3422   1.398       .  A
C3421      F3428   1.358       .  S
C3422      C3423   1.404       .  A
C3422      H3427   1.084       .  S
C3423      C3424   1.407       .  A
C3424      F3425   1.358       .  S
C3429      C3430   1.406       .  A
C3429      C3434   1.401       .  A
C3429      H3436   1.083       .  S
C3430      C3431   1.409       .  A
C3431      C3432   1.399       .  A
C3431      F3438   1.358       .  S
C3432      C3433   1.405       .  A
C3432      H3437   1.083       .  S
C3433      C3434   1.409       .  A
C3434      F3435   1.358       .  S
C3439      C3440   1.406       .  A
C3439      C3444   1.397       .  A
C3439      H3446   1.083       .  S
C3440      C3441   1.411       .  A
C3441      C3442   1.397       .  A
C3441      F3448   1.358       .  S
C3442      C3443   1.407       .  A
C3442      H3447   1.083       .  S
C3443      C3444   1.411       .  A
C3444      F3445   1.357       .  S
C3449      C3450   1.407       .  A
C3449      C3454   1.397       .  A
C3449      H3456   1.083       .  S
C3450      C3451   1.410       .  A
C3451      C3452   1.397       .  A
C3451      F3458   1.357       .  S
C3452      C3453   1.406       .  A
C3452      H3457   1.083       .  S
C3453      C3454   1.411       .  A
C3454      F3455   1.358       .  S
C3459      C3460   1.406       .  A
C3459      C3464   1.397       .  A
C3459      H3466   1.083       .  S
C3460      C3461   1.411       .  A
C3461      C3462   1.397       .  A
C3461      F3468   1.357       .  S
C3462      C3463   1.406       .  A
C3462      H3467   1.083       .  S
C3463      C3464   1.411       .  A
C3464      F3465   1.358       .  S
C3469      C3470   1.406       .  A
C3469      C3474   1.397       .  A
C3469      H3476   1.083       .  S
C3470      C3471   1.410       .  A
C3471      C3472   1.396       .  A
C3471      F3478   1.358       .  S
C3472      C3473   1.406       .  A
C3472      H3477   1.083       .  S
C3473      C3474   1.410       .  A
C3474      F3475   1.358       .  S
C3479      C3480   1.407       .  A
C3479      C3484   1.397       .  A
C3479      H3486   1.083       .  S
C3480      C3481   1.411       .  A
C3481      C3482   1.399       .  A
C3481      F3488   1.358       .  S
C3482      C3483   1.407       .  A
C3482      H3487   1.083       .  S
C3483      C3484   1.411       .  A
C3484      F3485   1.357       .  S
C3489      C3490   1.407       .  A
C3489      C3494   1.398       .  A
C3489      H3496   1.083       .  S
C3490      C3491   1.411       .  A
C3491      C3492   1.397       .  A
C3491      F3498   1.357       .  S
C3492      C3493   1.406       .  A
C3492      H3497   1.083       .  S
C3493      C3494   1.411       .  A
C3494      F3495   1.358       .  S
C3499      C3500   1.406       .  A
C3499      C3504   1.398       .  A
C3499      H3506   1.083       .  S
C3500      C3501   1.411       .  A
C3501      C3502   1.396       .  A
C3501      F3508   1.357       .  S
C3502      C3503   1.406       .  A
C3502      H3507   1.083       .  S
C3503      C3504   1.412       .  A
C3504      F3505   1.358       .  S
C3509      C3510   1.407       .  A
C3509      C3514   1.398       .  A
C3509      H3516   1.083       .  S
C3510      C3511   1.411       .  A
C3511      C3512   1.396       .  A
C3511      F3518   1.357       .  S
C3512      C3513   1.406       .  A
C3512      H3517   1.083       .  S
C3513      C3514   1.411       .  A
C3514      F3515   1.358       .  S
C3519      C3520   1.407       .  A
C3519      C3524   1.398       .  A
C3519      H3526   1.083       .  S
C3520      C3521   1.411       .  A
C3521      C3522   1.397       .  A
C3521      F3528   1.358       .  S
C3522      C3523   1.406       .  A
C3522      H3527   1.083       .  S
C3523      C3524   1.411       .  A
C3524      F3525   1.358       .  S
C3529      C3530   1.407       .  A
C3529      C3534   1.398       .  A
C3529      H3536   1.083       .  S
C3531      C3532   1.397       .  A
C3531      F3538   1.358       .  S
C3532      H3537   1.083       .  S
C3533      C3534   1.410       .  A
C3534      F3535   1.358       .  S
C3539      C3544   1.398       .  A
C3539      H3546   1.083       .  S
C3540      C3541   1.410       .  A
C3541      C3542   1.397       .  A
C3541      F3548   1.358       .  S
C3542      C3543   1.407       .  A
C3542      H3547   1.083       .  S
C3544      F3545   1.358       .  S
C3549      C3550   1.407       .  A
C3549      C3554   1.396       .  A
C3549      H3556   1.083       .  S
C3551      C3552   1.397       .  A
C3551      F3558   1.358       .  S
C3552      H3557   1.083       .  S
C3553      C3554   1.410       .  A
C3554      F3555   1.358       .  S
C3559      C3560   1.407       .  A
C3559      C3564   1.398       .  A
C3559      H3566   1.083       .  S
C3561      C3562   1.397       .  A
C3561      F3568   1.358       .  S
C3562      H3567   1.083       .  S
C3563      C3564   1.410       .  A
C3564      F3565   1.357       .  S
C3569      C3570   1.407       .  A
C3569      C3574   1.399       .  A
C3569      H3576   1.083       .  S
C3571      C3572   1.397       .  A
C3571      F3578   1.358       .  S
C3572      H3577   1.083   1_565  S
C3573      C3574   1.411       .  A
C3574      F3575   1.357       .  S
C3579      C3584   1.397       .  A
C3579      H3586   1.083       .  S
C3580      C3581   1.411       .  A
C3581      C3582   1.398       .  A
C3581      F3588   1.358       .  S
C3582      C3583   1.407       .  A
C3582      H3587   1.083       .  S
C3584      F3585   1.357       .  S
C3589      C3594   1.397       .  A
C3589      H3596   1.083       .  S
C3590      C3591   1.411       .  A
C3591      C3592   1.397       .  A
C3591      F3598   1.358       .  S
C3592      C3593   1.406       .  A
C3592      H3597   1.083       .  S
C3594      F3595   1.358       .  S
C3599      C3604   1.396       .  A
C3599      H3606   1.083       .  S
C3600      C3601   1.410       .  A
C3601      C3602   1.397       .  A
C3601      F3608   1.358       .  S
C3602      C3603   1.407       .  A
C3602      H3607   1.083       .  S
C3604      F3605   1.357       .  S
C3609      C3610   1.406       .  A
C3609      C3614   1.395       .  A
C3609      H3616   1.083       .  S
C3611      C3612   1.397       .  A
C3611      F3618   1.358       .  S
C3612      H3617   1.083       .  S
C3613      C3614   1.410       .  A
C3614      F3615   1.358       .  S
C3619      C3624   1.397       .  A
C3619      H3626   1.083       .  S
C3620      C3621   1.409       .  A
C3621      C3622   1.395       .  A
C3621      F3628   1.358       .  S
C3622      C3623   1.405       .  A
C3622      H3627   1.083       .  S
C3624      F3625   1.358       .  S
C3629      C3634   1.397       .  A
C3629      H3636   1.083       .  S
C3630      C3631   1.410       .  A
C3631      C3632   1.398       .  A
C3631      F3638   1.358       .  S
C3632      C3633   1.406       .  A
C3632      H3637   1.083       .  S
C3634      F3635   1.358       .  S
C3639      C3644   1.398       .  A
C3639      H3646   1.083       .  S
C3640      C3641   1.409       .  A
C3641      C3642   1.397       .  A
C3641      F3648   1.358       .  S
C3642      C3643   1.405       .  A
C3642      H3647   1.083       .  S
C3644      F3645   1.358       .  S
