geometry optimzed in LAMMPS
_audit_creation_date              2020-11-30 
_audit_creation_method            'lammps2cif' 
_symmetry_space_group_name_H-M    'P1' 
_symmetry_Int_Tables_number       1 
_symmetry_cell_setting            triclinic 
loop_ 
_symmetry_equiv_pos_as_xyz 
  x,y,z 
_cell_length_a                    32.1852883 
_cell_length_b                    31.736906802979185 
_cell_length_c                    24.714588792896354 
_cell_angle_alpha                 90.66927214608879 
_cell_angle_beta                  88.9190699814724 
_cell_angle_gamma                 90.2918703623142 
loop_ 
_atom_site_label 
_atom_site_type_symbol 
_atom_site_fract_x 
_atom_site_fract_y 
_atom_site_fract_z 
_atom_site_charge 
C1          C  0.48159681  0.23077119  0.30810532     0.82000
N2          N  0.48206573  0.27357261  0.30622226    -0.76300
C3          C  0.49535414  0.29357059  0.26055598     0.84500
N4          N  0.50824584  0.27053298  0.21692918    -0.76200
C5          C  0.50809509  0.22780038  0.21848279     0.84600
N6          N  0.49478840  0.20807954  0.26409260    -0.77900
O7          O  0.49382792  0.43204202  0.34343931    -0.72600
O8          O  0.50119962  0.55212449  0.34185822    -0.72600
O9          O  0.43798068  0.49522496  0.34220238    -0.72700
O10         O  0.55700126  0.48867275  0.34220999    -0.72700
O11         O  0.55871112  0.48958664  0.25197837    -0.72700
O12         O  0.43906415  0.49155446  0.25201105    -0.72600
O13         O  0.50025183  0.55152490  0.25162349    -0.72600
O14         O  0.49724342  0.43012460  0.25320744    -0.72700
Ni15       Ni  0.49746135  0.49212722  0.34552959     1.25400
Ni16       Ni  0.49888023  0.49069690  0.24887625     1.25400
C17         C  0.49445861  0.41125685  0.29883191     0.89600
C18         C  0.50169628  0.57168322  0.29691274     0.89500
C19         C  0.41887423  0.49349522  0.29720638     0.89500
C20         C  0.57749801  0.48825811  0.29725366     0.89700
C21         C  0.75401936  0.46666669  0.30635513     0.82000
N22         N  0.77873906  0.48146834  0.26529010    -0.76300
C23         C  0.76163321  0.49931758  0.22101437     0.84500
N24         N  0.71950272  0.50232074  0.21816021    -0.76200
C25         C  0.69461330  0.48818115  0.25926738     0.84600
N26         N  0.71213748  0.47045369  0.30311602    -0.77900
C27         C  0.51975947  0.75109445  0.30906977     0.82000
N28         N  0.50324417  0.77498464  0.26969626    -0.76300
C29         C  0.48485747  0.75659862  0.22640408     0.84500
N30         N  0.48297600  0.71383216  0.22245116    -0.76200
C31         C  0.49913040  0.68958298  0.26174134     0.84600
N32         N  0.51745571  0.70842998  0.30502207    -0.77900
C33         C  0.24049921  0.49712522  0.30349161     0.82000
N34         N  0.21938459  0.47817748  0.26265669    -0.76300
C35         C  0.24005419  0.46063618  0.21963800     0.84500
N36         N  0.28236319  0.46216909  0.21757074    -0.76200
C37         C  0.30383132  0.48081873  0.25839120     0.84600
N38         N  0.28267253  0.49819846  0.30121933    -0.77900
C39         C  0.47612328  0.76338735  0.77317444     0.82000
N40         N  0.47309492  0.72055093  0.77520034    -0.76300
C41         C  0.48940951  0.69608822  0.73459303     0.84500
N42         N  0.50911833  0.71474024  0.69200503    -0.76200
C43         C  0.51303704  0.75728313  0.68979057     0.84600
N44         N  0.49636109  0.78158065  0.73043803    -0.77900
O45         O  0.43191000  0.49974867  0.65011433    -0.72600
O46         O  0.55038435  0.49371755  0.65105598    -0.72600
O47         O  0.48826912  0.43641263  0.65126623    -0.72700
O48         O  0.49428547  0.55724377  0.65083618    -0.72700
O49         O  0.49009192  0.55847016  0.74101876    -0.72700
O50         O  0.48901940  0.43717866  0.74151161    -0.72600
O51         O  0.54886902  0.49686943  0.74130322    -0.72600
O52         O  0.42961062  0.49824382  0.74035459    -0.72700
Ni53       Ni  0.49121080  0.49679959  0.64766507     1.25400
Ni54       Ni  0.48925669  0.49781299  0.74434110     1.25400
C55         C  0.41122010  0.49948979  0.69478265     0.89600
C56         C  0.56910822  0.49382566  0.69620894     0.89500
C57         C  0.48898583  0.41689235  0.69634179     0.89500
C58         C  0.49282684  0.57779074  0.69577860     0.89700
C59         C  0.23011698  0.46712452  0.76640196     0.82000
N60         N  0.27220545  0.46929167  0.76933120    -0.76300
C61         C  0.29507605  0.48888481  0.73045842     0.84500
N62         N  0.27562557  0.50664612  0.68816023    -0.76200
C63         C  0.23357027  0.50544325  0.68490844     0.84600
N64         N  0.21075670  0.48545525  0.72412341    -0.77900
C65         C  0.53426323  0.23677883  0.76603240     0.82000
N66         N  0.53100976  0.27955781  0.76924887    -0.76300
C67         C  0.50864200  0.30082148  0.73224620     0.84500
N68         N  0.48923081  0.27897270  0.69229974    -0.76200
C69         C  0.49174347  0.23634421  0.68918495     0.84600
N70         N  0.51443615  0.21540455  0.72604324    -0.77900
C71         C  0.74465659  0.48884448  0.78822289     0.82000
N72         N  0.76573444  0.47258456  0.74408192    -0.76300
C73         C  0.74443701  0.46190211  0.69830491     0.84500
N74         N  0.70270204  0.46793264  0.69724889    -0.76200
C75         C  0.68192793  0.48405147  0.74097152     0.84600
N76         N  0.70301136  0.49416139  0.78605172    -0.77900
C77         C  0.97052844  0.73027103  0.79298854     0.82000
N78         N  0.97159262  0.77284318  0.78781640    -0.76300
C79         C  0.99043222  0.79077995  0.74387598     0.84500
N80         N  0.00810419  0.76573651  0.70489991    -0.76200
C81         C  0.00747471  0.72309431  0.71003079     0.84600
N82         N  0.98874294  0.70565917  0.75407199    -0.77900
O83         O  0.00001109  0.05017838  0.73569097    -0.72600
O84         O  0.99020951  0.92891557  0.73372320    -0.72600
O85         O  0.93620822  0.99407681  0.74508754    -0.72700
O86         O  0.05347973  0.98542489  0.72175705    -0.72700
O87         O  0.06340114  0.98289013  0.81068977    -0.72700
O88         O  0.94427473  0.99587639  0.83440332    -0.72600
O89         O  0.99703439  0.92934023  0.82336496    -0.72600
O90         O  0.01099937  0.04879766  0.82448482    -0.72700
Ni91       Ni  0.99462646  0.98963129  0.73096685     1.25400
Ni92       Ni  0.00423161  0.98909767  0.82646549     1.25400
C93         C  0.00783893  0.06923313  0.78058253     0.89600
C94         C  0.99165528  0.90933210  0.77884665     0.89500
C95         C  0.92061546  0.99680066  0.79301252     0.89500
C96         C  0.07790500  0.98321462  0.76174928     0.89700
C97         C  0.26640037  0.96225335  0.79851679     0.82000
N98         N  0.22480869  0.96202717  0.80902547    -0.76300
C99         C  0.19782543  0.97666840  0.77215307     0.84500
N100        N  0.21289912  0.99214537  0.72418944    -0.76200
C101        C  0.25466335  0.99286187  0.71339090     0.84600
N102        N  0.28104558  0.97765600  0.75078801    -0.77900
C103        C  0.02882876  0.25065058  0.78352012     0.82000
N104        N  0.02855901  0.20764786  0.78184032    -0.76300
C105        C  0.00364598  0.18674165  0.74633328     0.84500
N106        N  0.97921485  0.20888323  0.71306419    -0.76200
C107        C  0.97882118  0.25156461  0.71512144     0.84600
N108        N  0.00374499  0.27229701  0.75024559    -0.77900
C109        C  0.74045854  0.02776575  0.78859746     0.82000
N110        N  0.78247237  0.02294932  0.79316637    -0.76300
C111        C  0.80334102  0.99635192  0.75829502     0.84500
N112        N  0.78194374  0.97497721  0.71946821    -0.76200
C113        C  0.74012931  0.97929869  0.71576230     0.84600
N114        N  0.71990650  0.00575412  0.75019765    -0.77900
C115        C  0.98907220  0.24832060  0.28344691     0.82000
N116        N  0.98636706  0.20551404  0.27836005    -0.76300
C117        C  0.00948538  0.18487906  0.23955421     0.84500
N118        N  0.03515498  0.20724416  0.20639647    -0.76200
C119        C  0.03846245  0.24974427  0.21192391     0.84600
N120        N  0.01523429  0.27003907  0.25022469    -0.77900
O121        O  0.99389471  0.04746767  0.21974410    -0.72600
O122        O  0.98702497  0.92538231  0.21431568    -0.72600
O123        O  0.93178061  0.98944189  0.22454839    -0.72700
O124        O  0.04947843  0.98312443  0.20747220    -0.72700
O125        O  0.05560966  0.98381653  0.29723501    -0.72700
O126        O  0.93671416  0.98533372  0.31422494    -0.72600
O127        O  0.99533484  0.92495992  0.30372454    -0.72600
O128        O  0.99690802  0.04485611  0.30972569    -0.72700
Ni129      Ni  0.99034929  0.98649713  0.21321620     1.25400
Ni130      Ni  0.99641908  0.98473997  0.30933327     1.25400
C131        C  0.99553746  0.06608039  0.26622390     0.89600
C132        C  0.99056269  0.90530779  0.25887357     0.89500
C133        C  0.91475054  0.98801314  0.27172128     0.89500
C134        C  0.07196754  0.98204188  0.24945541     0.89700
C135        C  0.73504909  0.98384734  0.27078782     0.82000
N136        N  0.71664764  0.00503116  0.23016464    -0.76300
C137        C  0.74033124  0.02502412  0.19209477     0.84500
N138        N  0.78220661  0.02352047  0.19465937    -0.76200
C139        C  0.80086060  0.00287276  0.23503978     0.84600
N140        N  0.77729566  0.98295249  0.27318879    -0.77900
C141        C  0.99403868  0.72832704  0.28608574     0.82000
N142        N  0.99398316  0.77025150  0.27651426    -0.76300
C143        C  0.97419920  0.78619474  0.23319768     0.84500
N144        N  0.95408727  0.75943755  0.19899795    -0.76200
C145        C  0.95366911  0.71711357  0.20834022     0.84600
N146        N  0.97377503  0.70179666  0.25184493    -0.77900
C147        C  0.25394914  0.98598374  0.31644529     0.82000
N148        N  0.27280353  0.97036455  0.27039598    -0.76300
C149        C  0.24908425  0.95716782  0.22789276     0.84500
N150        N  0.20695842  0.96021660  0.23189040    -0.76200
C151        C  0.18842739  0.97575542  0.27771850     0.84600
N152        N  0.21204824  0.98821328  0.31953224    -0.77900
N153        N  0.15573978  0.34284776  0.07741426    -0.34800
N154        N  0.11556703  0.29022809  0.99436319    -0.55300
N155        N  0.15007771  0.34437891  0.90955955    -0.34800
N156        N  0.19752188  0.39079427  0.99200804    -0.55300
C157        C  0.14005560  0.31140858  0.10831874     0.28800
C158        C  0.18433652  0.36378089  0.10714792     0.28800
C159        C  0.13346440  0.31298774  0.87904399     0.28800
C160        C  0.17680302  0.36627444  0.87740368     0.28800
C161        C  0.09688584  0.27423385  0.03912958     0.37400
C162        C  0.09458669  0.27441768  0.95168948     0.37400
C163        C  0.21226984  0.41204314  0.03559740     0.37400
C164        C  0.20877490  0.41330638  0.94780824     0.37400
C165        C  0.15838084  0.31271967  0.15861270    -0.20100
C166        C  0.18639459  0.34552800  0.15781824    -0.20100
C167        C  0.14933255  0.31536427  0.82666277    -0.20100
C168        C  0.17671855  0.34877285  0.82564258    -0.20100
C169        C  0.06433027  0.24783682  0.02468276    -0.21100
C170        C  0.06293383  0.24790608  0.96942145    -0.21100
C171        C  0.23328374  0.44796140  0.01888658    -0.21100
C172        C  0.23104674  0.44879801  0.96354207    -0.21100
C173        C  0.10908529  0.28195410  0.09300162    -0.16500
C174        C  0.20835264  0.39913803  0.09025853    -0.16500
C175        C  0.20113581  0.40171313  0.89316052    -0.16500
C176        C  0.10385210  0.28260017  0.89671518    -0.16500
H177        H  0.15264969  0.29181186  0.19225198     0.16400
H178        H  0.20637156  0.35440502  0.19080995     0.16400
H179        H  0.14239403  0.29477221  0.79277191     0.16400
H180        H  0.19494290  0.35852236  0.79071520     0.16400
H181        H  0.04345530  0.23045655  0.05114335     0.14700
H182        H  0.04081077  0.23063537  0.94515657     0.14700
H183        H  0.24860204  0.47129698  0.04391679     0.14700
H184        H  0.24440453  0.47291549  0.93786163     0.14700
H185        H  0.14617679  0.35046646  0.03901743     0.28000
H186        H  0.14245583  0.35148732  0.94950857     0.28000
N187        N  0.61535831  0.13516546  0.07751094    -0.34800
N188        N  0.58787641  0.19152610  0.99256146    -0.55300
N189        N  0.64079280  0.14713557  0.91387064    -0.34800
N190        N  0.67427111  0.09662227  0.00103943    -0.55300
C191        C  0.59788742  0.16680168  0.10703107     0.28800
C192        C  0.64096867  0.11443020  0.11073258     0.28800
C193        C  0.62706471  0.17922997  0.88336052     0.28800
C194        C  0.67528109  0.13119317  0.88898538     0.28800
C195        C  0.56180429  0.20367054  0.03332663     0.37400
C196        C  0.57248609  0.20766624  0.94670358     0.37400
C197        C  0.67750487  0.06964161  0.04264636     0.37400
C198        C  0.69346286  0.07797717  0.95806332     0.37400
C199        C  0.61283320  0.16611924  0.15937446    -0.20100
C200        C  0.63960409  0.13275523  0.16184537    -0.20100
C201        C  0.65284878  0.18343305  0.83815340    -0.20100
C202        C  0.68333102  0.15327618  0.84180563    -0.20100
C203        C  0.52997697  0.22792037  0.01344996    -0.21100
C204        C  0.53662806  0.23032766  0.95858261    -0.21100
C205        C  0.69867917  0.03371216  0.02600254    -0.21100
C206        C  0.70914550  0.03916547  0.97252803    -0.21100
C207        C  0.56768160  0.19528743  0.08861875    -0.16500
C208        C  0.66502671  0.07893012  0.09652251    -0.16500
C209        C  0.69855469  0.09608282  0.90647401    -0.16500
C210        C  0.59142548  0.20425005  0.89468460    -0.16500
H211        H  0.60560572  0.18762052  0.19247238     0.16400
H212        H  0.65676936  0.12356646  0.19702145     0.16400
H213        H  0.65022931  0.20614698  0.80608836     0.16400
H214        H  0.70852854  0.14817195  0.81289969     0.16400
H215        H  0.50464272  0.24245544  0.03609742     0.14700
H216        H  0.51737060  0.24717972  0.93075411     0.14700
H217        H  0.70639598  0.00666273  0.05003047     0.14700
H218        H  0.72623152  0.01697973  0.94716862     0.14700
H219        H  0.60863922  0.12677939  0.03781747     0.28000
H220        H  0.62618778  0.13550246  0.94838772     0.28000
N221        N  0.85568095  0.60419422  0.07203722    -0.34800
N222        N  0.82042100  0.54847721  0.98869410    -0.55300
N223        N  0.87354290  0.58888185  0.90652203    -0.34800
N224        N  0.90199577  0.65014661  0.98727775    -0.55300
C225        C  0.82389988  0.58615938  0.10033575     0.28800
C226        C  0.86713933  0.63958051  0.09938453     0.28800
C227        C  0.84955499  0.56429590  0.87446254     0.28800
C228        C  0.89279900  0.61747558  0.87422319     0.28800
C229        C  0.80314391  0.53045118  0.03329490     0.37400
C230        C  0.81255977  0.52239546  0.94614419     0.37400
C231        C  0.91771450  0.66905321  0.03180024     0.37400
C232        C  0.92736503  0.66093570  0.94530000     0.37400
C233        C  0.81534216  0.61035421  0.14633990    -0.20100
C234        C  0.84259730  0.64389820  0.14576500    -0.20100
C235        C  0.85408823  0.57720756  0.82117736    -0.20100
C236        C  0.88125868  0.61061519  0.82105198    -0.20100
C237        C  0.78390972  0.49287940  0.01880891    -0.21100
C238        C  0.78986703  0.48780497  0.96382622    -0.21100
C239        C  0.95295092  0.69212826  0.01793928    -0.21100
C240        C  0.95916269  0.68682251  0.96327922    -0.21100
C241        C  0.80270875  0.54818615  0.08646924    -0.16500
C242        C  0.89983155  0.66756407  0.08444106    -0.16500
C243        C  0.92147886  0.64890356  0.89064228    -0.16500
C244        C  0.82399390  0.53014829  0.89117535    -0.16500
H245        H  0.79151226  0.60484387  0.17694647     0.16400
H246        H  0.84383698  0.66890089  0.17585424     0.16400
H247        H  0.83908871  0.56423113  0.78582670     0.16400
H248        H  0.89109827  0.62807872  0.78566468     0.16400
H249        H  0.76716301  0.47134948  0.04504582     0.14700
H250        H  0.77864931  0.46162992  0.93964628     0.14700
H251        H  0.97238678  0.71068748  0.04448947     0.14700
H252        H  0.98442876  0.70034655  0.93967282     0.14700
H253        H  0.87002142  0.59204513  0.03734500     0.28000
H254        H  0.87786725  0.58525885  0.94761803     0.28000
N255        N  0.37817340  0.85564956  0.09597295    -0.34800
N256        N  0.32694510  0.90071128  0.02087743    -0.55300
N257        N  0.37133122  0.85880187  0.92869650    -0.34800
N258        N  0.41613597  0.80792757  0.00514554    -0.55300
C259        C  0.34989900  0.87360500  0.13031919     0.28800
C260        C  0.39479632  0.82262277  0.12203868     0.28800
C261        C  0.33850568  0.87600070  0.90358600     0.28800
C262        C  0.38711613  0.82829135  0.89530538     0.28800
C263        C  0.31677484  0.92260784  0.06671948     0.37400
C264        C  0.31125992  0.92233859  0.97908658     0.37400
C265        C  0.43804058  0.79217327  0.04640643     0.37400
C266        C  0.43565746  0.79493370  0.95895499     0.37400
C267        C  0.34874983  0.85196511  0.17867627    -0.20100
C268        C  0.37669040  0.81960709  0.17329281    -0.20100
C269        C  0.33371489  0.85625933  0.85359464    -0.20100
C270        C  0.36446979  0.82654472  0.84825496    -0.20100
C271        C  0.29447464  0.95822274  0.05391768    -0.21100
C272        C  0.29068850  0.95788034  0.99859843    -0.21100
C273        C  0.47147039  0.76903202  0.02632681    -0.21100
C274        C  0.46996577  0.77078849  0.97099280    -0.21100
C275        C  0.32561795  0.90953007  0.12002053    -0.16500
C276        C  0.42691524  0.79596415  0.10184505    -0.16500
C277        C  0.42122290  0.80168787  0.90610010    -0.16500
C278        C  0.31313129  0.90949052  0.92386499    -0.16500
H279        H  0.32923527  0.85837360  0.21393566     0.16400
H280        H  0.38271636  0.79635122  0.20379140     0.16400
H281        H  0.31003715  0.86194769  0.82410823     0.16400
H282        H  0.36889600  0.80531283  0.81407631     0.16400
H283        H  0.28191809  0.98188799  0.08141988     0.14700
H284        H  0.27467030  0.98128288  0.97538952     0.14700
H285        H  0.49437715  0.75224392  0.04911672     0.14700
H286        H  0.49141049  0.75554425  0.94285095     0.14700
H287        H  0.38719346  0.86663150  0.05808919     0.28000
H288        H  0.38309774  0.86841831  0.96570673     0.28000
N289        N  0.10658015  0.61596445  0.57126558    -0.34800
N290        N  0.14965437  0.56298608  0.49150742    -0.55300
N291        N  0.10055802  0.60166203  0.40617278    -0.34800
N292        N  0.06458164  0.66093418  0.48434550    -0.55300
C293        C  0.13525571  0.59714367  0.60218459     0.28800
C294        C  0.09401682  0.65136756  0.59782280     0.28800
C295        C  0.12919418  0.58040381  0.37589179     0.28800
C296        C  0.08123505  0.62861370  0.37294674     0.28800
C297        C  0.15945535  0.54197380  0.53686618     0.37400
C298        C  0.15980205  0.53744050  0.44913785     0.37400
C299        C  0.04647760  0.67951922  0.52824635     0.37400
C300        C  0.03993829  0.66899453  0.44189211     0.37400
C301        C  0.14085566  0.62069186  0.64907164    -0.20100
C302        C  0.11520705  0.65510076  0.64608324    -0.20100
C303        C  0.12787346  0.59402378  0.32275679    -0.20100
C304        C  0.09747191  0.62417666  0.32086059    -0.20100
C305        C  0.17600196  0.50296188  0.52314535    -0.21100
C306        C  0.17653993  0.50025340  0.46760344    -0.21100
C307        C  0.01055689  0.70001470  0.51347915    -0.21100
C308        C  0.00620542  0.69301649  0.45893941    -0.21100
C309        C  0.15540595  0.55851552  0.59023298    -0.16500
C310        C  0.06213525  0.67894180  0.58135423    -0.16500
C311        C  0.04835108  0.65608642  0.38770220    -0.16500
C312        C  0.15498919  0.54753960  0.39393441    -0.16500
H313        H  0.16153391  0.61394972  0.68187306     0.16400
H314        H  0.11231476  0.67987291  0.67635806     0.16400
H315        H  0.14665711  0.58319483  0.28862357     0.16400
H316        H  0.08853320  0.64111932  0.28517760     0.16400
H317        H  0.18659231  0.47887143  0.55017745     0.14700
H318        H  0.18738701  0.47362696  0.44361151     0.14700
H319        H  0.98924629  0.71755612  0.53945625     0.14700
H320        H  0.98092448  0.70423674  0.43482878     0.14700
H321        H  0.09439796  0.60387051  0.53573959     0.28000
H322        H  0.09297029  0.59644882  0.44647247     0.28000
N323        N  0.38741138  0.09348410  0.58913595    -0.34800
N324        N  0.34048573  0.04608218  0.50802323    -0.55300
N325        N  0.39119175  0.08697555  0.42301508    -0.34800
N326        N  0.43130554  0.14077795  0.50403823    -0.55300
C327        C  0.35808787  0.07509578  0.62128218     0.28800
C328        C  0.40697487  0.12329705  0.61919022     0.28800
C329        C  0.36242583  0.06645600  0.39322127     0.28800
C330        C  0.40801753  0.11747768  0.39142077     0.28800
C331        C  0.32615492  0.02631157  0.55306945     0.37400
C332        C  0.32979449  0.02168394  0.46506675     0.37400
C333        C  0.45323866  0.15414638  0.54715709     0.37400
C334        C  0.45317323  0.15259190  0.45940070     0.37400
C335        C  0.35924448  0.09347810  0.67248740    -0.20100
C336        C  0.38997206  0.12371869  0.67117608    -0.20100
C337        C  0.36120731  0.08392686  0.34207268    -0.20100
C338        C  0.38981685  0.11610056  0.34098874    -0.20100
C339        C  0.30565179  0.98951011  0.53853341    -0.21100
C340        C  0.30810123  0.98648970  0.48297700    -0.21100
C341        C  0.48909841  0.17474068  0.52967641    -0.21100
C342        C  0.48896758  0.17386428  0.47414120    -0.21100
C343        C  0.33163694  0.04079690  0.60712783    -0.16500
C344        C  0.44079302  0.14912632  0.60206356    -0.16500
C345        C  0.44059024  0.14542179  0.40554388    -0.16500
C346        C  0.33799147  0.03156995  0.40985408    -0.16500
H347        H  0.33999816  0.08582261  0.70742588     0.16400
H348        H  0.39878148  0.14373647  0.70485386     0.16400
H349        H  0.34146661  0.07470857  0.30894784     0.16400
H350        H  0.39637979  0.13625614  0.30681562     0.16400
H351        H  0.29101868  0.96676213  0.56511100     0.14700
H352        H  0.29551368  0.96105970  0.45868470     0.14700
H353        H  0.51314613  0.18867845  0.55421272     0.14700
H354        H  0.51280505  0.18694459  0.44773904     0.14700
H355        H  0.39526548  0.08465872  0.54981950     0.28000
H356        H  0.40038291  0.07897067  0.46156592     0.28000
N357        N  0.86800106  0.34485098  0.58317443    -0.34800
N358        N  0.90403256  0.28915940  0.49919608    -0.55300
N359        N  0.87247158  0.34495056  0.41660984    -0.34800
N360        N  0.82865137  0.39554776  0.50059304    -0.55300
C361        C  0.87996916  0.31169890  0.61298037     0.28800
C362        C  0.84067910  0.36739033  0.61395227     0.28800
C363        C  0.88744427  0.31293572  0.38510845     0.28800
C364        C  0.84791327  0.36888662  0.38547859     0.28800
C365        C  0.92176569  0.27246210  0.54311727     0.37400
C366        C  0.92401091  0.27218995  0.45561841     0.37400
C367        C  0.81909615  0.41935451  0.54507138     0.37400
C368        C  0.82129841  0.41953802  0.45676514     0.37400
C369        C  0.86008518  0.31314729  0.66318867    -0.20100
C370        C  0.83530208  0.34825544  0.66382703    -0.20100
C371        C  0.87243690  0.31676148  0.33322936    -0.20100
C372        C  0.84757320  0.35190289  0.33342429    -0.20100
C373        C  0.95268136  0.24434607  0.52734517    -0.21100
C374        C  0.95402221  0.24409904  0.47194778    -0.21100
C375        C  0.80518090  0.45849231  0.52936674    -0.21100
C376        C  0.80658823  0.45863515  0.47364991    -0.21100
C377        C  0.90986839  0.28123221  0.59730964    -0.16500
C378        C  0.82194357  0.40581716  0.59958382    -0.16500
C379        C  0.82701684  0.40650460  0.40173850    -0.16500
C380        C  0.91530905  0.28102457  0.40116279    -0.16500
H381        H  0.86314481  0.29117159  0.69602384     0.16400
H382        H  0.81554862  0.35852072  0.69732318     0.16400
H383        H  0.87863529  0.29627723  0.29872874     0.16400
H384        H  0.83102770  0.36351532  0.29896288     0.16400
H385        H  0.97240503  0.22597327  0.55296274     0.14700
H386        H  0.97501115  0.22558586  0.44666404     0.14700
H387        H  0.79542949  0.48446392  0.55527095     0.14700
H388        H  0.79823566  0.48486861  0.44856897     0.14700
H389        H  0.87988024  0.35307199  0.54544639     0.28000
H390        H  0.88018360  0.35139653  0.45632382     0.28000
N391        N  0.63896330  0.87584866  0.57970809    -0.34800
N392        N  0.69306860  0.91021721  0.49416778    -0.55300
N393        N  0.63543411  0.87896634  0.41333621    -0.34800
N394        N  0.58604534  0.83699479  0.49868604    -0.55300
C395        C  0.67324133  0.88611039  0.60806827     0.28800
C396        C  0.61567389  0.84945770  0.61065680     0.28800
C397        C  0.66768311  0.89183608  0.38149271     0.28800
C398        C  0.61268193  0.85140837  0.38381785     0.28800
C399        C  0.71105727  0.92803110  0.53788837     0.37400
C400        C  0.70801055  0.93123597  0.45060726     0.37400
C401        C  0.56208509  0.83012855  0.54335402     0.37400
C402        C  0.56172816  0.82949447  0.45555141     0.37400
C403        C  0.67169073  0.86598752  0.65758046    -0.20100
C404        C  0.63533949  0.84300029  0.65929478    -0.20100
C405        C  0.66523253  0.87243754  0.33109957    -0.20100
C406        C  0.63055001  0.84697875  0.33253453    -0.20100
C407        C  0.73780818  0.96013651  0.52199169    -0.21100
C408        C  0.73580977  0.96223719  0.46673885    -0.21100
C409        C  0.52237825  0.81818521  0.52842482    -0.21100
C410        C  0.52224233  0.81752405  0.47280352    -0.21100
C411        C  0.70472632  0.91499603  0.59186345    -0.16500
C412        C  0.57638623  0.83240629  0.59721933    -0.16500
C413        C  0.57526872  0.83152735  0.40083930    -0.16500
C414        C  0.69865825  0.92145123  0.39626062    -0.16500
H415        H  0.69433338  0.86782490  0.68935698     0.16400
H416        H  0.62466328  0.82363768  0.69258310     0.16400
H417        H  0.68641602  0.87593468  0.29690506     0.16400
H418        H  0.61979888  0.82731285  0.29951725     0.16400
H419        H  0.75670524  0.98012921  0.54750596     0.14700
H420        H  0.75294961  0.98411577  0.44141653     0.14700
H421        H  0.49620862  0.81063645  0.55473482     0.14700
H422        H  0.49600136  0.80940476  0.44792894     0.14700
H423        H  0.63065867  0.88820989  0.54279465     0.28000
H424        H  0.62815091  0.89004558  0.45201752     0.28000
C425        C  0.27686822  0.00281233  0.36334816    -0.14600
C426        C  0.31824297  0.00623844  0.36575467    -0.29800
H427        H  0.25819571  0.01579124  0.39661476     0.14400
H428        H  0.33734667  0.99605519  0.33136619     0.15000
C429        C  0.30850322  0.93303819  0.16855488    -0.14600
C430        C  0.26752300  0.93876673  0.17723939    -0.29800
H431        H  0.32991712  0.94136362  0.20046094     0.14400
H432        H  0.24614463  0.92800568  0.14643214     0.15000
C433        C  0.01687934  0.71262877  0.33320699    -0.14600
C434        C  0.02191124  0.67144143  0.34304945    -0.29800
H435        H  0.03134733  0.73576160  0.35969778     0.14400
H436        H  0.00980093  0.64815931  0.31480254     0.15000
C437        C  0.93261105  0.68711336  0.17133613    -0.14600
C438        C  0.91538174  0.69896381  0.12482052    -0.29800
H439        H  0.93303382  0.65385847  0.18132883     0.14400
H440        H  0.91684716  0.73181963  0.11302988     0.15000
C441        C  0.70887281  0.96185251  0.31149053    -0.14600
C442        C  0.72511873  0.94122244  0.35328822    -0.29800
H443        H  0.67533038  0.96324121  0.30762139     0.14400
H444        H  0.75855486  0.94132173  0.35858783     0.15000
C445        C  0.68106715  0.05305166  0.14125439    -0.14600
C446        C  0.72203116  0.04825351  0.14733796    -0.29800
H447        H  0.65927059  0.04125852  0.17164111     0.14400
H448        H  0.74338286  0.06267963  0.11830189     0.15000
C449        C  0.11731477  0.97791179  0.24183817    -0.14600
C450        C  0.14301819  0.97946295  0.28378006    -0.29800
H451        H  0.12974426  0.97365217  0.20096109     0.14400
H452        H  0.13050803  0.98519443  0.32433885     0.15000
C453        C  0.99031698  0.85887616  0.26130589    -0.14600
C454        C  0.97457804  0.83244129  0.22387722    -0.29800
H455        H  0.00221217  0.84595184  0.29843772     0.14400
H456        H  0.96094128  0.84477834  0.18748780     0.15000
C457        C  0.86906090  0.98942234  0.27670929    -0.14600
C458        C  0.84643658  0.00128271  0.23449517    -0.29800
H459        H  0.85407088  0.98133923  0.31497098     0.14400
H460        H  0.86207058  0.01128567  0.19740198     0.15000
C461        C  0.96379616  0.27246522  0.32354061    -0.14600
C462        C  0.93688183  0.25484585  0.35878075    -0.29800
H463        H  0.96800928  0.30648163  0.32469714     0.14400
H464        H  0.93366871  0.22078504  0.36025997     0.15000
C465        C  0.08829771  0.25631903  0.13554406    -0.14600
C466        C  0.06546499  0.27445496  0.17526130    -0.29800
H467        H  0.08764424  0.22231055  0.12998022     0.14400
H468        H  0.06492198  0.30861027  0.17906902     0.15000
C469        C  0.00698910  0.13853978  0.23179530    -0.14600
C470        C  0.99515332  0.11261065  0.27170093    -0.29800
H471        H  0.01786365  0.12528742  0.19337261     0.14400
H472        H  0.98713810  0.12586374  0.31126143     0.15000
C473        C  0.73208026  0.93374682  0.63388975    -0.14600
C474        C  0.71552954  0.95619804  0.67516973    -0.29800
H475        H  0.76557792  0.93260489  0.62784298     0.14400
H476        H  0.68191343  0.95916293  0.67820508     0.15000
C477        C  0.71535164  0.05625699  0.82361025    -0.14600
C478        C  0.72891091  0.07540830  0.86845376    -0.29800
H479        H  0.68270065  0.05932168  0.81379843     0.14400
H480        H  0.76054627  0.07041084  0.88144851     0.15000
C481        C  0.95277699  0.27556834  0.67818914    -0.14600
C482        C  0.93005292  0.25649566  0.63991639    -0.29800
H483        H  0.95401171  0.30977865  0.68038689     0.14400
H484        H  0.93018142  0.22237967  0.63570413     0.15000
C485        C  0.05575083  0.27480997  0.82067799    -0.14600
C486        C  0.08138670  0.25676909  0.85568425    -0.29800
H487        H  0.05355367  0.30897901  0.82030769     0.14400
H488        H  0.08250224  0.22265563  0.85850050     0.15000
C489        C  0.27146819  0.01172872  0.66233360    -0.14600
C490        C  0.31275202  0.01672859  0.65337407    -0.29800
H491        H  0.24978886  0.02361091  0.63308365     0.14400
H492        H  0.33410781  0.00669626  0.68415934     0.15000
C493        C  0.29593827  0.94501246  0.83765291    -0.14600
C494        C  0.28380593  0.93014827  0.88629353    -0.29800
H495        H  0.32853892  0.94340063  0.82556858     0.14400
H496        H  0.25163185  0.93355546  0.89965351     0.15000
C497        C  0.87460897  0.00131728  0.79968711    -0.14600
C498        C  0.84931437  0.99199784  0.75810720    -0.29800
H499        H  0.86159058  0.01182979  0.83835972     0.14400
H500        H  0.86303976  0.97917886  0.72096297     0.15000
C501        C  0.01338651  0.11542998  0.78303935    -0.14600
C502        C  0.00220179  0.14033338  0.74253502    -0.29800
H503        H  0.02485322  0.12940714  0.82027211     0.14400
H504        H  0.98857771  0.12636295  0.70659654     0.15000
C505        C  0.12322137  0.98228821  0.74911110    -0.14600
C506        C  0.15261639  0.97636562  0.78606036    -0.29800
H507        H  0.13265952  0.98681638  0.70712315     0.14400
H508        H  0.14335457  0.97034997  0.82777132     0.15000
C509        C  0.02730923  0.69506044  0.66915455    -0.14600
C510        C  0.04345985  0.70877163  0.62196660    -0.29800
H511        H  0.02824417  0.66159688  0.67792812     0.14400
H512        H  0.04050325  0.74168990  0.61114918     0.15000
C513        C  0.94875513  0.71113047  0.84006142    -0.14600
C514        C  0.94703994  0.66912411  0.84700743    -0.29800
H515        H  0.93263649  0.73184845  0.86867984     0.14400
H516        H  0.96163327  0.64838586  0.81704973     0.15000
C517        C  0.98686418  0.86307102  0.78136862    -0.14600
C518        C  0.99258367  0.83719899  0.73849478    -0.29800
H519        H  0.98061963  0.84971413  0.82100838     0.14400
H520        H  0.00129505  0.85018373  0.69939206     0.15000
C521        C  0.76505893  0.50387579  0.83825634    -0.14600
C522        C  0.80604316  0.50352126  0.84679502    -0.29800
H523        H  0.74511408  0.51939318  0.86831143     0.14400
H524        H  0.82685293  0.49039848  0.81592186     0.15000
C525        C  0.76463337  0.44261355  0.64939019    -0.14600
C526        C  0.80499969  0.43238030  0.64545905    -0.29800
H527        H  0.74460021  0.43421296  0.61597698     0.14400
H528        H  0.82482593  0.43830269  0.67985132     0.15000
C529        C  0.55804384  0.21273554  0.80605660    -0.14600
C530        C  0.57383252  0.23041161  0.85093716    -0.29800
H531        H  0.56060650  0.17885620  0.80005722     0.14400
H532        H  0.56936570  0.26383283  0.85893376     0.15000
C533        C  0.46472776  0.17143519  0.64501526    -0.14600
C534        C  0.46946230  0.21357149  0.64586000    -0.29800
H535        H  0.47610680  0.15291315  0.67828177     0.14400
H536        H  0.45555835  0.23208988  0.61428297     0.15000
C537        C  0.22424549  0.42574176  0.85047695    -0.14600
C538        C  0.20576250  0.44391204  0.80815663    -0.29800
H539        H  0.25747201  0.42978610  0.85572957     0.14400
H540        H  0.17231179  0.44125280  0.80394460     0.15000
C541        C  0.21397554  0.52565651  0.63808694    -0.14600
C542        C  0.17339120  0.53522030  0.63650309    -0.29800
H543        H  0.23416979  0.53481564  0.60444719     0.14400
H544        H  0.15353925  0.52934840  0.67167939     0.15000
C545        C  0.61461999  0.48918785  0.69543011    -0.14600
C546        C  0.63665169  0.49039265  0.74090714    -0.29800
H547        H  0.63022244  0.48397826  0.65656744     0.14400
H548        H  0.62113299  0.49678151  0.77954491     0.15000
C549        C  0.49022900  0.37031498  0.69512669    -0.14600
C550        C  0.50532534  0.34739108  0.73585086    -0.29800
H551        H  0.48088555  0.35461929  0.65796981     0.14400
H552        H  0.51689877  0.36322736  0.77179603     0.15000
C553        C  0.36551800  0.50061296  0.69243650    -0.14600
C554        C  0.34078841  0.49010981  0.73453367    -0.29800
H555        H  0.35190612  0.50834949  0.65391679     0.14400
H556        H  0.35441777  0.48036297  0.77225749     0.15000
C557        C  0.45710534  0.79049956  0.81640798    -0.14600
C558        C  0.43926416  0.77462308  0.86158848    -0.29800
H559        H  0.45813063  0.82444922  0.81129747     0.14400
H560        H  0.43994566  0.74084162  0.86811964     0.15000
C561        C  0.53578676  0.77591120  0.64310059    -0.14600
C562        C  0.54975755  0.81590636  0.64255987    -0.26200
H563        H  0.54331860  0.75524951  0.60896784     0.14400
H564        H  0.54524519  0.83580888  0.67823513     0.15000
C565        C  0.48626216  0.64946223  0.73739944    -0.14600
C566        C  0.49495613  0.62440065  0.69427520    -0.29800
H567        H  0.47611655  0.63555522  0.77539922     0.14400
H568        H  0.50338046  0.63853382  0.65574397     0.15000
C569        C  0.23335221  0.42250232  0.13149443    -0.14600
C570        C  0.21592169  0.43912900  0.17681349    -0.29800
H571        H  0.26635801  0.42696664  0.12336098     0.14400
H572        H  0.18252344  0.43623253  0.18316535     0.15000
C573        C  0.21826123  0.51766015  0.34959638    -0.14600
C574        C  0.17668252  0.52164933  0.35147119    -0.29800
H575        H  0.23663171  0.53180798  0.38154554     0.14400
H576        H  0.15834516  0.50960835  0.31816765     0.15000
C577        C  0.46590624  0.78361353  0.18553264    -0.14600
C578        C  0.44845387  0.76814873  0.14046514    -0.29800
H579        H  0.46533538  0.81738917  0.19334839     0.14400
H580        H  0.45060467  0.73473605  0.13081588     0.15000
C581        C  0.54904296  0.81254277  0.35791941    -0.14600
C582        C  0.54095021  0.77094911  0.35556185    -0.29800
H583        H  0.54038223  0.83258079  0.32465928     0.14400
H584        H  0.55205947  0.75072480  0.38733348     0.15000
C585        C  0.78912934  0.51674458  0.17755899    -0.14600
C586        C  0.77517748  0.52801533  0.12860426    -0.29800
H587        H  0.82189078  0.52084396  0.18620250     0.14400
H588        H  0.74303134  0.52170961  0.11845009     0.15000
C589        C  0.77139448  0.44517429  0.35401021    -0.14600
C590        C  0.81147383  0.43370623  0.35723886    -0.29800
H591        H  0.74982141  0.43612292  0.38622761     0.14400
H592        H  0.83257163  0.44026425  0.32350962     0.15000
C593        C  0.37287830  0.49356960  0.29851011    -0.14600
C594        C  0.34989850  0.48210302  0.25571536    -0.29800
H595        H  0.35754368  0.50162026  0.33675613     0.14400
H596        H  0.36524093  0.47222505  0.21817627     0.15000
C597        C  0.50459576  0.61812060  0.29907164    -0.14600
C598        C  0.49657894  0.64305273  0.25700156    -0.29800
H599        H  0.51248263  0.63232283  0.33777954     0.14400
H600        H  0.48680817  0.62917876  0.21887964     0.15000
C601        C  0.62339186  0.48553037  0.29899333    -0.14600
C602        C  0.64873403  0.49170616  0.25574114    -0.29800
H603        H  0.63677941  0.47874868  0.33795036     0.14400
H604        H  0.63566278  0.50018821  0.21717649     0.15000
C605        C  0.52510629  0.20262691  0.17283721    -0.14600
C606        C  0.54343116  0.22043869  0.12934606    -0.29800
H607        H  0.52562402  0.16857312  0.17695727     0.14400
H608        H  0.54182096  0.25430838  0.12389951     0.15000
C609        C  0.46573685  0.20939847  0.35733747    -0.14600
C610        C  0.46263221  0.16717844  0.36011794    -0.29800
H611        H  0.45435718  0.22874714  0.39095802     0.14400
H612        H  0.47210927  0.14794363  0.32541891     0.15000
C613        C  0.49172780  0.36489974  0.30133079    -0.14600
C614        C  0.49664937  0.33999526  0.25749232    -0.29800
H615        H  0.48642954  0.35090720  0.34079905     0.14400
H616        H  0.50323591  0.35395167  0.21829592     0.15000
loop_ 
_geom_bond_atom_site_label_1 
_geom_bond_atom_site_label_2 
_geom_bond_distance 
_geom_bond_site_symmetry_2 
_ccdc_geom_bond_type 
C1            N2   1.360       .  A
C1            N6   1.360       .  A
C1          C609   1.481       .  S
N2            C3   1.362       .  A
C3            N4   1.355       .  A
C3          C614   1.477       .  S
N4            C5   1.357       .  A
C5            N6   1.357       .  A
C5          C605   1.473       .  S
O7          Ni15   1.910       .  S
O7           C17   1.278       .  A
O8          Ni15   1.910       .  S
O8           C18   1.279       .  A
O9          Ni15   1.921       .  S
O9           C19   1.281       .  A
O10         Ni15   1.920       .  S
O10          C20   1.281       .  A
O11         Ni16   1.929       .  S
O11          C20   1.283       .  A
O12         Ni16   1.926       .  S
O12          C19   1.283       .  A
O13         Ni16   1.931       .  S
O13          C18   1.284       .  A
O14         Ni16   1.927       .  S
O14          C17   1.284       .  A
Ni15        Ni16   2.388       .  S
C17         C613   1.475       .  S
C18         C597   1.477       .  S
C19         C593   1.480       .  S
C20         C601   1.482       .  S
C21          N22   1.364       .  A
C21          N26   1.358       .  A
C21         C589   1.487       .  S
N22          C23   1.364       .  A
C23          N24   1.363       .  A
C23         C585   1.488       .  S
N24          C25   1.361       .  A
C25          N26   1.360       .  A
C25         C602   1.486       .  S
C27          N28   1.358       .  A
C27          N32   1.358       .  A
C27         C582   1.480       .  S
N28          C29   1.357       .  A
C29          N30   1.361       .  A
C29         C577   1.475       .  S
N30          C31   1.359       .  A
C31          N32   1.362       .  A
C31         C598   1.482       .  S
C33          N34   1.360       .  A
C33          N38   1.358       .  A
C33         C573   1.481       .  S
N34          C35   1.359       .  A
C35          N36   1.362       .  A
C35         C570   1.483       .  S
N36          C37   1.362       .  A
C37          N38   1.361       .  A
C37         C594   1.483       .  S
C39          N40   1.364       .  A
C39          N44   1.363       .  A
C39         C557   1.489       .  S
N40          C41   1.361       .  A
C41          N42   1.359       .  A
C41         C565   1.485       .  S
N42          C43   1.357       .  A
C43          N44   1.363       .  A
C43         C561   1.482       .  S
O45         Ni53   1.911       .  S
O45          C55   1.279       .  A
O46         Ni53   1.911       .  S
O46          C56   1.278       .  A
O47         Ni53   1.921       .  S
O47          C57   1.282       .  A
O48         Ni53   1.921       .  S
O48          C58   1.282       .  A
O49         Ni54   1.928       .  S
O49          C58   1.283       .  A
O50         Ni54   1.925       .  S
O50          C57   1.282       .  A
O51         Ni54   1.919       .  S
O51          C56   1.283       .  A
O52         Ni54   1.924       .  S
O52          C55   1.283       .  A
Ni53        Ni54   2.389       .  S
C55         C553   1.474       .  S
C56         C545   1.473       .  S
C57         C549   1.479       .  S
C58         C566   1.481       .  S
C59          N60   1.359       .  A
C59          N64   1.364       .  A
C59         C538   1.484       .  S
N60          C61   1.354       .  A
C61          N62   1.358       .  A
C61         C554   1.477       .  S
N62          C63   1.358       .  A
C63          N64   1.365       .  A
C63         C541   1.482       .  S
C65          N66   1.364       .  A
C65          N70   1.359       .  A
C65         C529   1.483       .  S
N66          C67   1.362       .  A
C67          N68   1.360       .  A
C67         C550   1.484       .  S
N68          C69   1.357       .  A
C69          N70   1.360       .  A
C69         C534   1.479       .  S
C71          N72   1.371       .  A
C71          N76   1.354       .  A
C71         C521   1.484       .  S
N72          C73   1.372       .  A
C73          N74   1.359       .  A
C73         C525   1.489       .  S
N74          C75   1.356       .  A
C75          N76   1.350       .  A
C75         C546   1.472       .  S
C77          N78   1.359       .  A
C77          N82   1.358       .  A
C77         C513   1.482       .  S
N78          C79   1.363       .  A
C79          N80   1.360   1_655  A
C79         C518   1.482       .  S
N80          C81   1.361       .  A
C81          N82   1.357   1_455  A
C81         C509   1.477       .  S
O83         Ni91   1.931   1_445  S
O83          C93   1.286       .  A
O84         Ni91   1.933       .  S
O84          C94   1.285       .  A
O85         Ni91   1.911       .  S
O85          C95   1.280       .  A
O86         Ni91   1.909   1_455  S
O86          C96   1.277       .  A
O87         Ni92   1.947       .  S
O87          C96   1.288       .  A
O88         Ni92   1.949   1_655  S
O88          C95   1.287       .  A
O89         Ni92   1.910   1_655  S
O89          C94   1.278       .  A
O90         Ni92   1.907   1_545  S
O90          C93   1.277       .  A
Ni91        Ni92   2.386   1_655  S
C93         C501   1.477       .  S
C94         C517   1.477       .  S
C95         C497   1.494   1_565  S
C96         C505   1.486       .  S
C97          N98   1.359       .  A
C97         N102   1.357       .  A
C97         C493   1.480       .  S
N98          C99   1.358       .  A
C99         N100   1.368       .  A
C99         C506   1.489       .  S
N100        C101   1.366       .  A
C101        N102   1.361       .  A
C101        C489   1.494   1_565  S
C103        N104   1.365       .  A
C103        N108   1.358       .  A
C103        C485   1.479       .  S
N104        C105   1.364       .  A
C105        N106   1.353   1_455  A
C105        C502   1.475       .  S
N106        C107   1.355       .  A
C107        N108   1.356   1_655  A
C107        C481   1.472       .  S
C109        N110   1.369       .  A
C109        N114   1.353       .  A
C109        C477   1.477       .  S
N110        C111   1.369   1_545  A
C111        N112   1.364       .  A
C111        C498   1.487       .  S
N112        C113   1.358       .  A
C113        N114   1.349   1_565  A
C113        C474   1.476       .  S
C115        N116   1.365       .  A
C115        N120   1.356   1_655  A
C115        C461   1.480       .  S
N116        C117   1.366   1_655  A
C117        N118   1.356       .  A
C117        C469   1.483       .  S
N118        C119   1.358       .  A
C119        N120   1.354       .  A
C119        C466   1.474       .  S
O121       Ni129   1.943   1_545  S
O121        C131   1.287       .  A
O122       Ni129   1.942       .  S
O122        C132   1.286       .  A
O123       Ni129   1.903       .  S
O123        C133   1.280       .  A
O124       Ni129   1.909   1_455  S
O124        C134   1.277       .  A
O125       Ni130   1.923   1_455  S
O125        C134   1.285       .  A
O126       Ni130   1.923       .  S
O126        C133   1.281       .  A
O127       Ni130   1.901       .  S
O127        C132   1.277       .  A
O128       Ni130   1.908   1_545  S
O128        C131   1.277       .  A
Ni129      Ni130   2.389       .  S
C131        C470   1.481       .  S
C132        C453   1.475       .  S
C133        C457   1.474       .  S
C134        C449   1.474       .  S
C135        N136   1.361   1_565  A
C135        N140   1.363       .  A
C135        C441   1.479       .  S
N136        C137   1.360       .  A
C137        N138   1.352       .  A
C137        C446   1.470       .  S
N138        C139   1.352       .  A
C139        N140   1.359   1_545  A
C139        C458   1.468       .  S
C141        N142   1.354       .  A
C141        N146   1.360       .  A
C141        C433   1.481   1_655  S
N142        C143   1.360       .  A
C143        N144   1.361       .  A
C143        C454   1.488       .  S
N144        C145   1.366       .  A
C145        N146   1.361       .  A
C145        C437   1.483       .  S
C147        N148   1.369       .  A
C147        N152   1.351       .  A
C147        C425   1.479   1_565  S
N148        C149   1.371       .  A
C149        N150   1.361       .  A
C149        C430   1.490       .  S
N150        C151   1.359       .  A
C151        N152   1.349       .  A
C151        C450   1.472       .  S
N153        C158   1.355       .  A
N153        C157   1.353       .  A
N153        H185   1.035       .  S
N154        C161   1.352   1_556  A
N154        C162   1.353       .  A
N155        C160   1.355       .  A
N155        C159   1.356       .  A
N155        H186   1.035       .  S
N156        C163   1.356   1_556  A
N156        C164   1.355       .  A
C157        C165   1.386       .  A
C157        C173   1.417       .  A
C158        C174   1.422       .  A
C158        C166   1.389       .  A
C159        C167   1.385       .  A
C159        C176   1.419       .  A
C160        C175   1.422       .  A
C160        C168   1.389       .  A
C161        C173   1.414       .  A
C161        C169   1.388       .  A
C162        C176   1.412       .  A
C162        C170   1.386       .  A
C163        C171   1.386       .  A
C163        C174   1.419       .  A
C164        C172   1.388       .  A
C164        C175   1.421       .  A
C165        C166   1.374       .  A
C165        H177   1.082       .  S
C166        H178   1.082       .  S
C167        C168   1.376       .  A
C167        H179   1.082       .  S
C168        H180   1.082       .  S
C169        C170   1.367   1_554  A
C169        H181   1.082       .  S
C170        H182   1.082       .  S
C171        C172   1.372   1_554  A
C171        H183   1.082       .  S
C172        H184   1.082       .  S
C173        C465   1.484       .  S
C174        C569   1.498       .  S
C175        C537   1.494       .  S
C176        C486   1.492       .  S
N187        C192   1.353       .  A
N187        C191   1.353       .  A
N187        H219   1.040       .  S
N188        C195   1.353   1_556  A
N188        C196   1.353       .  A
N189        C194   1.356       .  A
N189        C193   1.355       .  A
N189        H220   1.037       .  S
N190        C197   1.352       .  A
N190        C198   1.351   1_554  A
C191        C199   1.389       .  A
C191        C207   1.416       .  A
C192        C208   1.408       .  A
C192        C200   1.385       .  A
C193        C201   1.386       .  A
C193        C210   1.420       .  A
C194        C209   1.422       .  A
C194        C202   1.387       .  A
C195        C207   1.412       .  A
C195        C203   1.385       .  A
C196        C210   1.416       .  A
C196        C204   1.388       .  A
C197        C205   1.386       .  A
C197        C208   1.412       .  A
C198        C206   1.387       .  A
C198        C209   1.411       .  A
C199        C200   1.371       .  A
C199        H211   1.082       .  S
C200        H212   1.082       .  S
C201        C202   1.379       .  A
C201        H213   1.082       .  S
C202        H214   1.082       .  S
C203        C204   1.372   1_554  A
C203        H215   1.082       .  S
C204        H216   1.082       .  S
C205        C206   1.370   1_554  A
C205        H217   1.082       .  S
C206        H218   1.082       .  S
C207        C606   1.489       .  S
C208        C445   1.487       .  S
C209        C478   1.492       .  S
C210        C530   1.493       .  S
N221        C226   1.357       .  A
N221        C225   1.356       .  A
N221        H253   1.037       .  S
N222        C229   1.356   1_556  A
N222        C230   1.357       .  A
N223        C228   1.355       .  A
N223        C227   1.355       .  A
N223        H254   1.036       .  S
N224        C231   1.353   1_556  A
N224        C232   1.354       .  A
C225        C233   1.389       .  A
C225        C241   1.423       .  A
C226        C242   1.420       .  A
C226        C234   1.386       .  A
C227        C235   1.389       .  A
C227        C244   1.418       .  A
C228        C243   1.417       .  A
C228        C236   1.387       .  A
C229        C241   1.423       .  A
C229        C237   1.387       .  A
C230        C244   1.425       .  A
C230        C238   1.386       .  A
C231        C239   1.387       .  A
C231        C242   1.414       .  A
C232        C240   1.386       .  A
C232        C243   1.415       .  A
C233        C234   1.376       .  A
C233        H245   1.082       .  S
C234        H246   1.082       .  S
C235        C236   1.371       .  A
C235        H247   1.082       .  S
C236        H248   1.082       .  S
C237        C238   1.376   1_554  A
C237        H249   1.082       .  S
C238        H250   1.082       .  S
C239        C240   1.370   1_554  A
C239        H251   1.082       .  S
C240        H252   1.082       .  S
C241        C586   1.501       .  S
C242        C438   1.493       .  S
C243        C514   1.493       .  S
C244        C522   1.499       .  S
N255        C260   1.354       .  A
N255        C259   1.356       .  A
N255        H287   1.039       .  S
N256        C263   1.358       .  A
N256        C264   1.354   1_554  A
N257        C262   1.359       .  A
N257        C261   1.356       .  A
N257        H288   1.039       .  S
N258        C265   1.353       .  A
N258        C266   1.354   1_554  A
C259        C267   1.385       .  A
C259        C275   1.414       .  A
C260        C276   1.419       .  A
C260        C268   1.388       .  A
C261        C269   1.390       .  A
C261        C278   1.424       .  A
C262        C277   1.419       .  A
C262        C270   1.384       .  A
C263        C275   1.420       .  A
C263        C271   1.385       .  A
C264        C278   1.420       .  A
C264        C272   1.388       .  A
C265        C273   1.387       .  A
C265        C276   1.414       .  A
C266        C274   1.386       .  A
C266        C277   1.414       .  A
C267        C268   1.372       .  A
C267        H279   1.082       .  S
C268        H280   1.082       .  S
C269        C270   1.374       .  A
C269        H281   1.082       .  S
C270        H282   1.082       .  S
C271        C272   1.375   1_554  A
C271        H283   1.082       .  S
C272        H284   1.082       .  S
C273        C274   1.371   1_554  A
C273        H285   1.082       .  S
C274        H286   1.082       .  S
C275        C429   1.502       .  S
C276        C578   1.491       .  S
C277        C558   1.498       .  S
C278        C494   1.495       .  S
N289        C294   1.354       .  A
N289        C293   1.355       .  A
N289        H321   1.037       .  S
N290        C297   1.354       .  A
N290        C298   1.353       .  A
N291        C296   1.354       .  A
N291        C295   1.354       .  A
N291        H322   1.036       .  S
N292        C299   1.353       .  A
N292        C300   1.355       .  A
C293        C301   1.386       .  A
C293        C309   1.415       .  A
C294        C310   1.420       .  A
C294        C302   1.389       .  A
C295        C303   1.389       .  A
C295        C312   1.418       .  A
C296        C311   1.414       .  A
C296        C304   1.386       .  A
C297        C309   1.418       .  A
C297        C305   1.386       .  A
C298        C312   1.417       .  A
C298        C306   1.386       .  A
C299        C307   1.386       .  A
C299        C310   1.415       .  A
C300        C308   1.386       .  A
C300        C311   1.418       .  A
C301        C302   1.376       .  A
C301        H313   1.082       .  S
C302        H314   1.082       .  S
C303        C304   1.374       .  A
C303        H315   1.082       .  S
C304        H316   1.083       .  S
C305        C306   1.374       .  A
C305        H317   1.082       .  S
C306        H318   1.082       .  S
C307        C308   1.373       .  A
C307        H319   1.082   1_455  S
C308        H320   1.082   1_455  S
C309        C542   1.496       .  S
C310        C510   1.492       .  S
C311        C434   1.494       .  S
C312        C574   1.491       .  S
N323        C328   1.356       .  A
N323        C327   1.356       .  A
N323        H355   1.035       .  S
N324        C331   1.356       .  A
N324        C332   1.355       .  A
N325        C330   1.355       .  A
N325        C329   1.353       .  A
N325        H356   1.038       .  S
N326        C333   1.352       .  A
N326        C334   1.353       .  A
C327        C335   1.388       .  A
C327        C343   1.423       .  A
C328        C344   1.420       .  A
C328        C336   1.387       .  A
C329        C337   1.388       .  A
C329        C346   1.415       .  A
C330        C345   1.416       .  A
C330        C338   1.387       .  A
C331        C343   1.422       .  A
C331        C339   1.386   1_545  A
C332        C346   1.423       .  A
C332        C340   1.387   1_545  A
C333        C341   1.388       .  A
C333        C344   1.418       .  A
C334        C342   1.385       .  A
C334        C345   1.414       .  A
C335        C336   1.375       .  A
C335        H347   1.082       .  S
C336        H348   1.082       .  S
C337        C338   1.372       .  A
C337        H349   1.082       .  S
C338        H350   1.082       .  S
C339        C340   1.376       .  A
C339        H351   1.082       .  S
C340        H352   1.082       .  S
C341        C342   1.373       .  A
C341        H353   1.082       .  S
C342        H354   1.082       .  S
C343        C490   1.500       .  S
C344        C533   1.493       .  S
C345        C610   1.491       .  S
C346        C426   1.496       .  S
N357        C362   1.354       .  A
N357        C361   1.353       .  A
N357        H389   1.037       .  S
N358        C365   1.351       .  A
N358        C366   1.352       .  A
N359        C364   1.355       .  A
N359        C363   1.358       .  A
N359        H390   1.035       .  S
N360        C367   1.358       .  A
N360        C368   1.356       .  A
C361        C369   1.386       .  A
C361        C377   1.413       .  A
C362        C378   1.415       .  A
C362        C370   1.388       .  A
C363        C371   1.385       .  A
C363        C380   1.421       .  A
C364        C379   1.423       .  A
C364        C372   1.389       .  A
C365        C377   1.411       .  A
C365        C373   1.387       .  A
C366        C380   1.411       .  A
C366        C374   1.387       .  A
C367        C375   1.385       .  A
C367        C378   1.424       .  A
C368        C376   1.387       .  A
C368        C379   1.426       .  A
C369        C370   1.373       .  A
C369        H381   1.082       .  S
C370        H382   1.082       .  S
C371        C372   1.376       .  A
C371        H383   1.082       .  S
C372        H384   1.082       .  S
C373        C374   1.369       .  A
C373        H385   1.082       .  S
C374        H386   1.082       .  S
C375        C376   1.377       .  A
C375        H387   1.082       .  S
C376        H388   1.082       .  S
C377        C482   1.482       .  S
C378        C526   1.501       .  S
C379        C590   1.501       .  S
C380        C462   1.493       .  S
N391        C396   1.355       .  A
N391        C395   1.355       .  A
N391        H423   1.037       .  S
N392        C399   1.352       .  A
N392        C400   1.353       .  A
N393        C398   1.354       .  A
N393        C397   1.355       .  A
N393        H424   1.038       .  S
N394        C401   1.354       .  A
N394        C402   1.353       .  A
C395        C403   1.387       .  A
C395        C411   1.418       .  A
C396        C412   1.417       .  A
C396        C404   1.387       .  A
C397        C405   1.386       .  A
C397        C414   1.417       .  A
C398        C413   1.416       .  A
C398        C406   1.388       .  A
C399        C411   1.412       .  A
C399        C407   1.386       .  A
C400        C414   1.413       .  A
C400        C408   1.387       .  A
C401        C409   1.387       .  A
C401        C412   1.418       .  A
C402        C410   1.386       .  A
C402        C413   1.415       .  A
C403        C404   1.376       .  A
C403        H415   1.082       .  S
C404        H416   1.082       .  S
C405        C406   1.375       .  A
C405        H417   1.082       .  S
C406        H418   1.082       .  S
C407        C408   1.371       .  A
C407        H419   1.082       .  S
C408        H420   1.082       .  S
C409        C410   1.375       .  A
C409        H421   1.082       .  S
C410        H422   1.082       .  S
C411        C473   1.491       .  S
C412        C562   1.496       .  S
C413        C581   1.488       .  S
C414        C442   1.491       .  S
C425        C426   1.338       .  D
C425        H427   1.088       .  S
C426        H428   1.087   1_545  S
C429        C430   1.345       .  D
C429        H431   1.086       .  S
C430        H432   1.087       .  S
C433        C434   1.344       .  D
C433        H435   1.087       .  S
C434        H436   1.087       .  S
C437        C438   1.344       .  D
C437        H439   1.087       .  S
C438        H440   1.087       .  S
C441        C442   1.345       .  D
C441        H443   1.087       .  S
C442        H444   1.087       .  S
C445        C446   1.339       .  D
C445        H447   1.086       .  S
C446        H448   1.088       .  S
C449        C450   1.339       .  D
C449        H451   1.087       .  S
C450        H452   1.087       .  S
C453        C454   1.346       .  D
C453        H455   1.087   1_655  S
C454        H456   1.086       .  S
C457        C458   1.342   1_565  D
C457        H459   1.086       .  S
C458        H460   1.087       .  S
C461        C462   1.341       .  D
C461        H463   1.087       .  S
C462        H464   1.086       .  S
C465        C466   1.341       .  D
C465        H467   1.087       .  S
C466        H468   1.087       .  S
C469        C470   1.340   1_455  D
C469        H471   1.087       .  S
C470        H472   1.087       .  S
C473        C474   1.341       .  D
C473        H475   1.086       .  S
C474        H476   1.088       .  S
C477        C478   1.337       .  D
C477        H479   1.088       .  S
C478        H480   1.086       .  S
C481        C482   1.343       .  D
C481        H483   1.087       .  S
C482        H484   1.087       .  S
C485        C486   1.342       .  D
C485        H487   1.087       .  S
C486        H488   1.087       .  S
C489        C490   1.352       .  D
C489        H491   1.086       .  S
C490        H492   1.086       .  S
C493        C494   1.347       .  D
C493        H495   1.087       .  S
C494        H496   1.086       .  S
C497        C498   1.352   1_545  D
C497        H499   1.086       .  S
C498        H500   1.087       .  S
C501        C502   1.338       .  D
C501        H503   1.087       .  S
C502        H504   1.087   1_455  S
C505        C506   1.343       .  D
C505        H507   1.087       .  S
C506        H508   1.086       .  S
C509        C510   1.344       .  D
C509        H511   1.087       .  S
C510        H512   1.086       .  S
C513        C514   1.347       .  D
C513        H515   1.087       .  S
C514        H516   1.087       .  S
C517        C518   1.343       .  D
C517        H519   1.087       .  S
C518        H520   1.086   1_655  S
C521        C522   1.340       .  D
C521        H523   1.088       .  S
C522        H524   1.086       .  S
C525        C526   1.342       .  D
C525        H527   1.087       .  S
C526        H528   1.087       .  S
C529        C530   1.344       .  D
C529        H531   1.087       .  S
C530        H532   1.086       .  S
C533        C534   1.345       .  D
C533        H535   1.086       .  S
C534        H536   1.087       .  S
C537        C538   1.350       .  D
C537        H539   1.086       .  S
C538        H540   1.086       .  S
C541        C542   1.344       .  D
C541        H543   1.087       .  S
C542        H544   1.086       .  S
C545        C546   1.340       .  D
C545        H547   1.087       .  S
C546        H548   1.087       .  S
C549        C550   1.348       .  D
C549        H551   1.086       .  S
C550        H552   1.087       .  S
C553        C554   1.342       .  D
C553        H555   1.087       .  S
C554        H556   1.087       .  S
C557        C558   1.348       .  D
C557        H559   1.087       .  S
C558        H560   1.086       .  S
C561        C562   1.345       .  D
C561        H563   1.087       .  S
C562        H564   1.087       .  S
C565        C566   1.348       .  D
C565        H567   1.086       .  S
C566        H568   1.087       .  S
C569        C570   1.347       .  D
C569        H571   1.086       .  S
C570        H572   1.087       .  S
C573        C574   1.345       .  D
C573        H575   1.087       .  S
C574        H576   1.087       .  S
C577        C578   1.344       .  D
C577        H579   1.087       .  S
C578        H580   1.086       .  S
C581        C582   1.345       .  D
C581        H583   1.087       .  S
C582        H584   1.087       .  S
C585        C586   1.351       .  D
C585        H587   1.087       .  S
C586        H588   1.086       .  S
C589        C590   1.346       .  D
C589        H591   1.087       .  S
C590        H592   1.087       .  S
C593        C594   1.348       .  D
C593        H595   1.086       .  S
C594        H596   1.086       .  S
C597        C598   1.344       .  D
C597        H599   1.087       .  S
C598        H600   1.087       .  S
C601        C602   1.348       .  D
C601        H603   1.086       .  S
C602        H604   1.086       .  S
C605        C606   1.345       .  D
C605        H607   1.087       .  S
C606        H608   1.086       .  S
C609        C610   1.346       .  D
C609        H611   1.087       .  S
C610        H612   1.087       .  S
C613        C614   1.341       .  D
C613        H615   1.087       .  S
C614        H616   1.087       .  S
