geometry optimzed in LAMMPS
_audit_creation_date              2020-11-30 
_audit_creation_method            'lammps2cif' 
_symmetry_space_group_name_H-M    'P1' 
_symmetry_Int_Tables_number       1 
_symmetry_cell_setting            triclinic 
loop_ 
_symmetry_equiv_pos_as_xyz 
  x,y,z 
_cell_length_a                    26.85437902 
_cell_length_b                    25.873771212894642 
_cell_length_c                    41.57349397037203 
_cell_angle_alpha                 89.94418458463564 
_cell_angle_beta                  89.70043576014879 
_cell_angle_gamma                 89.50340460739396 
loop_ 
_atom_site_label 
_atom_site_type_symbol 
_atom_site_fract_x 
_atom_site_fract_y 
_atom_site_fract_z 
_atom_site_charge 
C1          C  0.51056685  0.11475911  0.33191352    -0.02600
C2          C  0.40149337  0.00922517  0.42394128    -0.02600
C3          C  0.60880854  0.01513635  0.42259518    -0.02600
C4          C  0.49218530  0.91234861  0.33031606    -0.02600
C5          C  0.10081530  0.47473014  0.33759229    -0.02600
C6          C  0.99358124  0.39810922  0.43413826    -0.02600
C7          C  0.99726443  0.60120991  0.42665508    -0.02600
C8          C  0.90479265  0.48818880  0.33201155    -0.02600
In9        In  0.49846420  0.79902843  0.25817936     1.36900
C10         C  0.49417765  0.86609843  0.30790285     0.77400
O11         O  0.57102039  0.76833020  0.23959235    -0.61000
O12         O  0.54378609  0.73736784  0.28310896    -0.51900
C13         C  0.42190855  0.73272650  0.25758439     0.70100
O14         O  0.45691874  0.73162703  0.23725323    -0.46800
C15         C  0.50303940  0.86028994  0.20476302     0.74800
O16         O  0.46008591  0.85971755  0.28749534    -0.58700
O17         O  0.53302052  0.86135367  0.22790775    -0.48700
O18         O  0.53082115  0.83593002  0.30412638    -0.55100
C19         C  0.57792309  0.73678482  0.26218321     0.85000
O20         O  0.42606936  0.76832701  0.27799806    -0.57000
O21         O  0.46941900  0.82705401  0.20853104    -0.60300
In22       In  0.80200265  0.50899739  0.25529496     1.36900
C23         C  0.85596045  0.52492253  0.20039665     0.77400
O24         O  0.77328770  0.58798420  0.24519080    -0.61000
O25         O  0.73783239  0.54518430  0.28207514    -0.51900
C26         C  0.73789257  0.43211475  0.24773852     0.70100
O27         O  0.77976681  0.42614111  0.26078684    -0.46800
C28         C  0.86312870  0.49318374  0.30702649     0.74800
O29         O  0.82626695  0.48787855  0.20399690    -0.58700
O30         O  0.83702980  0.53341726  0.30311304    -0.48700
O31         O  0.85599677  0.55489661  0.22430121    -0.55100
C32         C  0.73832068  0.58602460  0.26547912     0.85000
O33         O  0.73005912  0.47712082  0.23724214    -0.57000
O34         O  0.85651326  0.46046455  0.28507551    -0.60300
In35       In  0.19874395  0.50132765  0.25944831     1.36900
C36         C  0.14282217  0.48142883  0.31295922     0.77400
O37         O  0.26780220  0.53681169  0.23875787    -0.61000
O38         O  0.22930934  0.57846593  0.27486373    -0.51900
C39         C  0.26146211  0.42163696  0.25951354     0.70100
O40         O  0.25857863  0.45361001  0.28231058    -0.46800
C41         C  0.13583567  0.52162673  0.20869907     0.74800
O42         O  0.14618752  0.45218038  0.28875848    -0.58700
O43         O  0.14792378  0.55437598  0.22969245    -0.48700
O44         O  0.17084299  0.52007924  0.31090205    -0.55100
C45         C  0.26632090  0.57676221  0.25602247     0.85000
O46         O  0.23141416  0.43037137  0.23693932    -0.57000
O47         O  0.15613548  0.47823738  0.21344151    -0.60300
In48       In  0.50368799  0.21609845  0.25135596     1.36900
C49         C  0.49854899  0.15650322  0.19707000     0.77400
O50         O  0.53895544  0.28667519  0.23020602    -0.61000
O51         O  0.58002367  0.24324063  0.26412640    -0.51900
C52         C  0.42336547  0.27483870  0.25718758     0.70100
O53         O  0.42557248  0.23669145  0.23842857    -0.46800
C54         C  0.51069694  0.15656141  0.30563038     0.74800
O55         O  0.46775119  0.15616506  0.21994501    -0.58700
O56         O  0.53963003  0.15410891  0.28162770    -0.48700
O57         O  0.53162647  0.18998953  0.20095369    -0.55100
C58         C  0.57869241  0.28229160  0.24596209     0.85000
O59         O  0.46256428  0.28296484  0.27281768    -0.57000
O60         O  0.47783536  0.19113773  0.30243825    -0.60300
C61         C  0.39763844  0.01265663  0.08581807    -0.02600
C62         C  0.50628765  0.89922771  0.17712259    -0.02600
C63         C  0.60588853  0.99930379  0.08650284    -0.02600
C64         C  0.49691045  0.11614658  0.17001371    -0.02600
C65         C  0.99341602  0.40599213  0.09403440    -0.02600
C66         C  0.89626239  0.52625492  0.17419053    -0.02600
C67         C  0.01184492  0.61937380  0.08358960    -0.02600
C68         C  0.09424729  0.53202008  0.18411961    -0.02600
In69       In  0.69948309  0.99557058  0.00397624     1.36900
C70         C  0.64605142  0.01098105  0.45002951     0.77400
O71         O  0.77587731  0.97061832  0.48718632    -0.61000
O72         O  0.71672039  0.91024192  0.00899731    -0.51900
C73         C  0.76335905  0.07368926  0.01194789     0.70100
O74         O  0.76276573  0.04498644  0.52952431    -0.46800
C75         C  0.63996685  0.99613573  0.05699814     0.74800
O76         O  0.64278912  0.04035713  0.47414730    -0.58700
O77         O  0.67434353  0.96327358  0.05304596    -0.48700
O78         O  0.67987781  0.97749530  0.45273181    -0.55100
C79         C  0.75997839  0.91490315  0.99714428     0.85000
O80         O  0.73914899  0.06669541  0.98650911    -0.57000
O81         O  0.63580255  0.02666060  0.03361669    -0.60300
In82       In  0.00418043  0.70933964  0.99823435     1.36900
C83         C  0.01279861  0.65587811  0.05455060     0.77400
O84         O  0.96476560  0.78030696  0.98038800    -0.61000
O85         O  0.92946681  0.73357719  0.50697470    -0.51900
C86         C  0.07958783  0.77611230  0.00005906     0.70100
O87         O  0.05052683  0.76842948  0.02340616    -0.46800
C88         C  0.00189199  0.64769656  0.44922663     0.74800
O89         O  0.03832838  0.64649281  0.02953147    -0.58700
O90         O  0.96560197  0.66555117  0.46509632    -0.48700
O91         O  0.98415877  0.69409965  0.05113613    -0.55100
C92         C  0.92289688  0.76816202  0.99185620     0.85000
O93         O  0.06652605  0.76318941  0.47489025    -0.57000
O94         O  0.04302932  0.66434881  0.45923437    -0.60300
In95       In  0.99095665  0.29813785  0.01623338     1.36900
C96         C  0.99155309  0.35880715  0.46145283     0.77400
O97         O  0.91670521  0.28342299  0.50051167    -0.61000
O98         O  0.95264559  0.22669578  0.03478562    -0.51900
C99         C  0.06945366  0.23429358  0.01258525     0.70100
O100        O  0.07413161  0.28482001  0.52882855    -0.46800
C101        C  0.99665455  0.36202425  0.06896644     0.74800
O102        O  0.02719638  0.32899213  0.46876012    -0.58700
O103        O  0.96340901  0.32830577  0.06542881    -0.48700
O104        O  0.95638417  0.35837142  0.48175051    -0.55100
C105        C  0.91365733  0.24356516  0.51775852     0.85000
O106        O  0.03154069  0.22990087  0.99507986    -0.57000
O107        O  0.02709428  0.36182376  0.04580229    -0.60300
In108      In  0.29926698  0.00787698  0.00617467     1.36900
C109        C  0.35959672  0.00953359  0.05864253     0.77400
O110        O  0.26988287  0.93261855  0.98757373    -0.61000
O111        O  0.24426603  0.96405370  0.52820363    -0.51900
C112        C  0.23102462  0.08377930  0.00429972     0.70100
O113        O  0.26367520  0.08053040  0.02590944    -0.46800
C114        C  0.36262301  0.01136828  0.45097488     0.74800
O115        O  0.35597270  0.04466027  0.03778117    -0.58700
O116        O  0.35743224  0.97434774  0.47043396    -0.48700
O117        O  0.33173352  0.97174781  0.05294311    -0.55100
C118        C  0.23611736  0.92889495  0.00864059     0.85000
O119        O  0.23608543  0.05494078  0.48377131    -0.57000
O120        O  0.33576843  0.05001199  0.45804799    -0.60300
C121        C  0.19070105  0.16071134  0.02947177    -0.20500
C122        C  0.19085122  0.12387528  0.00462239    -0.07000
C123        C  0.15630216  0.13401598  0.48218764     0.13800
C124        C  0.11353569  0.16218717  0.98499396    -0.20500
C125        C  0.11275546  0.19818120  0.01027222    -0.07000
C126        C  0.15243776  0.19779368  0.03263270     0.13800
C127        C  0.15477588  0.23550893  0.06023120    -0.23900
H128        H  0.22052614  0.16016489  0.04693206     0.15100
H129        H  0.08748504  0.17094307  0.46898458     0.15100
C130        C  0.15322196  0.09715392  0.45418999    -0.23800
H131        H  0.18822919  0.22900254  0.07535069     0.05400
H132        H  0.12154106  0.23114825  0.07596792     0.08600
H133        H  0.15658055  0.27565072  0.05085915     0.08600
H134        H  0.14608337  0.04742916  0.96356401     0.08600
H135        H  0.18703715  0.10065815  0.43887734     0.08600
H136        H  0.12052939  0.10548261  0.43871112     0.05300
C137        C  0.12954656  0.83880095  0.03122580    -0.20500
C138        C  0.12171263  0.81303899  0.00192151    -0.07000
C139        C  0.15370426  0.83285690  0.47209622     0.13800
C140        C  0.19057541  0.87065884  0.47483050    -0.20500
C141        C  0.19815837  0.88745800  0.00804701    -0.07000
C142        C  0.16703539  0.87586835  0.03466888     0.13800
C143        C  0.17295860  0.90181230  0.06689112    -0.23900
H144        H  0.10567561  0.83042800  0.05164082     0.15100
H145        H  0.20580656  0.88788250  0.45316919     0.15100
C146        C  0.13764333  0.81693554  0.43886293    -0.23800
H147        H  0.14726091  0.88566287  0.08528194     0.05400
H148        H  0.16439682  0.94370772  0.06480094     0.08600
H149        H  0.21159653  0.89612482  0.07569052     0.08600
H150        H  0.09797269  0.82756702  0.43509459     0.06200
H151        H  0.14298900  0.77461869  0.43579674     0.08600
H152        H  0.15966459  0.83648050  0.41978280     0.05300
C153        C  0.80336217  0.15292529  0.99069840    -0.20500
C154        C  0.80037633  0.11585600  0.01534758    -0.07000
C155        C  0.83390770  0.11904693  0.04151304     0.13800
C156        C  0.86963950  0.15842656  0.04188648    -0.20500
C157        C  0.87293136  0.19510158  0.01706572    -0.07000
C158        C  0.83844176  0.20328933  0.49014225     0.13800
C159        C  0.84108347  0.24008060  0.46201732    -0.23900
H160        H  0.77860893  0.16038428  0.46890724     0.15100
H161        H  0.89557002  0.16034348  0.06173227     0.15100
C162        C  0.83330713  0.08085407  0.06892925    -0.23800
H163        H  0.81304092  0.23093371  0.44336316     0.05400
H164        H  0.87794088  0.22760632  0.95134688     0.08600
H165        H  0.83369219  0.28019872  0.47031680     0.08600
H166        H  0.84036666  0.04121264  0.05966912     0.08600
H167        H  0.79675373  0.08257867  0.08149700     0.08600
H168        H  0.86247762  0.08924162  0.08698855     0.05300
C169        C  0.83468541  0.87866856  0.97067971    -0.20500
C170        C  0.79671505  0.87212839  0.99360772    -0.07000
C171        C  0.79749291  0.82765272  0.01345022     0.13800
C172        C  0.83826697  0.79323437  0.01135011    -0.20500
C173        C  0.87806729  0.80200587  0.98989021    -0.07000
C174        C  0.87486296  0.84406882  0.96820346     0.13800
C175        C  0.91295090  0.85279280  0.94200562    -0.23900
H176        H  0.83337173  0.91183166  0.95473939     0.15100
H177        H  0.83987889  0.76028231  0.02744762     0.15100
C178        C  0.76242192  0.82459229  0.53490204    -0.23800
H179        H  0.90208193  0.88522929  0.92590589     0.05400
H180        H  0.94304532  0.84355769  0.43819369     0.08600
H181        H  0.94945908  0.86267599  0.95259996     0.08600
H182        H  0.72869278  0.82161452  0.51970842     0.08600
H183        H  0.75437912  0.84931234  0.05526779     0.08600
H184        H  0.76783069  0.78680359  0.54715198     0.05300
C185        C  0.06053295  0.65099186  0.13629336    -0.20500
C186        C  0.06152834  0.62717949  0.10566735    -0.07000
C187        C  0.10736591  0.59880311  0.10219765     0.13800
C188        C  0.12518720  0.56891641  0.12866593    -0.20500
C189        C  0.10615511  0.57839297  0.15995716    -0.07000
C190        C  0.08749835  0.62957846  0.16276248     0.13800
C191        C  0.11983897  0.66729379  0.18046763    -0.23900
H192        H  0.04834512  0.69084676  0.13746803     0.15100
H193        H  0.15245650  0.53849132  0.12473566     0.15100
C194        C  0.14414707  0.61282949  0.07623474    -0.23800
H195        H  0.14960810  0.68109837  0.16399382     0.05400
H196        H  0.13848615  0.64883525  0.20132871     0.08600
H197        H  0.09795700  0.70142812  0.18870021     0.08600
H198        H  0.17383680  0.63698473  0.08681399     0.08600
H199        H  0.12604915  0.63533235  0.05674026     0.08600
H200        H  0.16222965  0.57769455  0.06601591     0.05300
C201        C  0.96386272  0.57632701  0.20714830    -0.20500
C202        C  0.94545725  0.52900456  0.19556068    -0.07000
C203        C  0.97133361  0.48818532  0.21112099     0.13800
C204        C  0.02288170  0.49425466  0.21801889    -0.20500
C205        C  0.04701288  0.53971710  0.20709011    -0.07000
C206        C  0.01538877  0.58401411  0.20998280     0.13800
C207        C  0.03113841  0.63488771  0.22380717    -0.23900
H208        H  0.93866261  0.60613061  0.21494736     0.15100
H209        H  0.04463524  0.46077462  0.22526655     0.15100
C210        C  0.94551664  0.44480015  0.22670382    -0.23800
H211        H  0.02271252  0.66657208  0.20664865     0.05400
H212        H  0.00940821  0.64317428  0.24604216     0.08600
H213        H  0.07077601  0.63416426  0.23076009     0.08600
H214        H  0.95901837  0.40693212  0.21754999     0.08600
H215        H  0.90473020  0.44891584  0.22700411     0.08600
H216        H  0.95489306  0.44822214  0.25155587     0.05300
C217        C  0.88560658  0.57669340  0.11711148    -0.20500
C218        C  0.89570661  0.57751061  0.15059291    -0.07000
C219        C  0.91793007  0.62623874  0.15760471     0.13800
C220        C  0.95489134  0.64630576  0.13613097    -0.20500
C221        C  0.96032210  0.62571361  0.10456514    -0.07000
C222        C  0.91313974  0.60707730  0.09469128     0.13800
C223        C  0.88077092  0.64247476  0.07453923    -0.23900
H224        H  0.84842579  0.56695206  0.11030809     0.15100
H225        H  0.97096653  0.68308942  0.14180242     0.15100
C226        C  0.89094795  0.66414312  0.17908069    -0.23800
H227        H  0.86513401  0.67365182  0.09002855     0.05400
H228        H  0.84917330  0.62114465  0.06388130     0.08600
H229        H  0.90139908  0.66107752  0.05482117     0.08600
H230        H  0.86251494  0.64463317  0.19415190     0.08600
H231        H  0.87157367  0.69335786  0.16394879     0.08600
H232        H  0.91762471  0.68465057  0.19477865     0.05300
C233        C  0.96776454  0.48372604  0.05798812    -0.20500
C234        C  0.00508581  0.45688792  0.07476856    -0.07000
C235        C  0.05306329  0.47979806  0.07019392     0.13800
C236        C  0.05468843  0.53285534  0.06298206    -0.20500
C237        C  0.01186483  0.56383371  0.06685080    -0.07000
C238        C  0.96977412  0.53777570  0.05509864     0.13800
C239        C  0.93482392  0.56202620  0.03211685    -0.23900
H240        H  0.93924605  0.46271219  0.04551912     0.15100
H241        H  0.08794512  0.54877377  0.05313028     0.15100
C242        C  0.10141346  0.45071743  0.06645093    -0.23800
H243        H  0.94078135  0.54068566  0.01016349     0.05400
H244        H  0.94312401  0.60274337  0.02661898     0.08600
H245        H  0.89566025  0.55602924  0.03962103     0.08600
H246        H  0.09606162  0.40875397  0.06556165     0.08600
H247        H  0.11977874  0.46124875  0.04346164     0.08600
H248        H  0.12742960  0.46170477  0.08583670     0.05300
C249        C  0.01033507  0.43571488  0.14931265    -0.20500
C250        C  0.02947244  0.40610948  0.12475876    -0.07000
C251        C  0.08311413  0.40191888  0.12926359     0.13800
C252        C  0.10821592  0.43965709  0.15031638    -0.20500
C253        C  0.08031300  0.48401453  0.16203836    -0.07000
C254        C  0.03110653  0.48299976  0.15189907     0.13800
C255        C  0.00738524  0.52745756  0.13647974    -0.23900
H256        H  0.01207401  0.41428407  0.17172888     0.15100
H257        H  0.14733468  0.43528194  0.15584308     0.15100
C258        C  0.11133881  0.35535162  0.11742342    -0.23800
H259        H  0.97222229  0.51773566  0.12438565     0.05400
H260        H  0.03477609  0.53860819  0.11962100     0.08600
H261        H  0.00291549  0.56104851  0.15182097     0.08600
H262        H  0.08743336  0.33045830  0.10232668     0.08600
H263        H  0.12420341  0.33232191  0.13837774     0.08600
H264        H  0.14455276  0.36714647  0.10334442     0.05300
C265        C  0.89844610  0.44011589  0.09834395    -0.20500
C266        C  0.93675197  0.40593428  0.10831159    -0.07000
C267        C  0.92480915  0.38644059  0.13956599     0.13800
C268        C  0.90350477  0.42184799  0.16236311    -0.20500
C269        C  0.89259303  0.47362752  0.15277408    -0.07000
C270        C  0.87306392  0.47133132  0.12122166     0.13800
C271        C  0.81773166  0.47817356  0.11677096    -0.23900
H272        H  0.88186016  0.43439853  0.07498808     0.15100
H273        H  0.89203314  0.40698922  0.18519332     0.15100
C274        C  0.93947920  0.33282618  0.14980807    -0.23800
H275        H  0.80150320  0.50418404  0.13539301     0.05400
H276        H  0.80954633  0.49394596  0.09248757     0.08600
H277        H  0.79937784  0.44003679  0.11905940     0.08600
H278        H  0.95752432  0.31128793  0.12977208     0.08600
H279        H  0.90573331  0.31151418  0.15746602     0.08600
H280        H  0.96573274  0.33442760  0.17029033     0.05300
C281        C  0.62323212  0.06625695  0.13473884    -0.20500
C282        C  0.60887707  0.05720821  0.10259651    -0.07000
C283        C  0.57937680  0.10025978  0.09080864     0.13800
C284        C  0.54692919  0.12787045  0.11260973    -0.20500
C285        C  0.54666600  0.11749402  0.14620596    -0.07000
C286        C  0.59604990  0.10129616  0.15525092     0.13800
C287        C  0.62964132  0.13976627  0.17154108    -0.23900
H288        H  0.66046197  0.05476701  0.14145936     0.15100
H289        H  0.52197273  0.15562133  0.10244171     0.15100
C290        C  0.57761481  0.11421183  0.05562462    -0.23800
H291        H  0.66330689  0.12033484  0.18142050     0.05400
H292        H  0.61184763  0.16078979  0.19146095     0.08600
H293        H  0.64203994  0.16879291  0.15356886     0.08600
H294        H  0.56115691  0.08301213  0.04111794     0.08600
H295        H  0.61581037  0.12260229  0.04687523     0.08600
H296        H  0.55452683  0.14936612  0.05143608     0.05300
C297        C  0.45524918  0.03396081  0.19799414    -0.20500
C298        C  0.49827938  0.06239172  0.18963301    -0.07000
C299        C  0.54103251  0.03802989  0.20369783     0.13800
C300        C  0.54243009  0.98332767  0.20540807    -0.20500
C301        C  0.50161813  0.95360453  0.19524694    -0.07000
C302        C  0.45648174  0.98012278  0.20216754     0.13800
C303        C  0.41409910  0.95653341  0.22068084    -0.23900
H304        H  0.42311639  0.05338309  0.20706302     0.15100
H305        H  0.57300096  0.96496514  0.21718126     0.15100
C306        C  0.58050426  0.06600334  0.22192971    -0.23800
H307        H  0.37845494  0.96189625  0.20777002     0.05400
H308        H  0.40805866  0.97809295  0.24281177     0.08600
H309        H  0.42121152  0.91552843  0.22704136     0.08600
H310        H  0.58185938  0.05107927  0.24663504     0.08600
H311        H  0.57276446  0.10765539  0.22401832     0.08600
H312        H  0.61768112  0.05789109  0.21133436     0.05300
C313        C  0.56750996  0.87193330  0.12814945    -0.20500
C314        C  0.56137594  0.89249618  0.15949751    -0.07000
C315        C  0.60497448  0.92172087  0.16681019     0.13800
C316        C  0.62750669  0.95327935  0.14266395    -0.20500
C317        C  0.61270833  0.95011851  0.11011096    -0.07000
C318        C  0.59186518  0.90049428  0.10305959     0.13800
C319        C  0.59848141  0.87592936  0.07052573    -0.23900
H320        H  0.55513607  0.83332289  0.12370953     0.15100
H321        H  0.66021473  0.97475471  0.14879041     0.15100
C322        C  0.63759752  0.90630963  0.19467238    -0.23800
H323        H  0.58147652  0.83701484  0.06969063     0.05400
H324        H  0.63881333  0.87115012  0.06527292     0.08600
H325        H  0.58135169  0.89940589  0.05139099     0.08600
H326        H  0.61806263  0.88082462  0.21186186     0.08600
H327        H  0.65133217  0.94098124  0.20749916     0.08600
H328        H  0.67054675  0.88469523  0.18538915     0.05300
C329        C  0.52742728  0.98478235  0.04561618    -0.20500
C330        C  0.55102478  0.99561683  0.07572882    -0.07000
C331        C  0.51876378  0.01316529  0.09864350     0.13800
C332        C  0.48231943  0.04369128  0.08915360    -0.20500
C333        C  0.44916911  0.02115862  0.06907908    -0.07000
C334        C  0.47355559  0.99090153  0.04420554     0.13800
C335        C  0.44451063  0.96192754  0.01976600    -0.23900
H336        H  0.54831995  0.96911507  0.02551810     0.15100
H337        H  0.47279977  0.06593323  0.10887071     0.15100
C338        C  0.51822531  0.99623290  0.13156845    -0.23800
H339        H  0.46931580  0.93441341  0.00724128     0.05400
H340        H  0.42676040  0.98989932  0.00368830     0.08600
H341        H  0.41422159  0.93845284  0.03002489     0.08600
H342        H  0.54928322  0.01096844  0.14517591     0.08600
H343        H  0.52023217  0.95598170  0.12895035     0.08600
H344        H  0.48167123  0.00376511  0.14269572     0.05300
C345        C  0.43346413  0.14489271  0.12059247    -0.20500
C346        C  0.44271932  0.12381982  0.15169065    -0.07000
C347        C  0.39788638  0.09940591  0.16129942     0.13800
C348        C  0.37611638  0.06286984  0.14031064    -0.20500
C349        C  0.38581305  0.06488256  0.10696204    -0.07000
C350        C  0.40316792  0.11640332  0.09788601     0.13800
C351        C  0.39712292  0.13769892  0.06453313    -0.23900
H352        H  0.45054760  0.18081157  0.11356357     0.15100
H353        H  0.34423037  0.04233866  0.14873948     0.15100
C354        C  0.36478676  0.12372999  0.18666369    -0.23800
H355        H  0.41176313  0.17760762  0.06276406     0.05400
H356        H  0.35699305  0.13919939  0.05832336     0.08600
H357        H  0.41789626  0.11385872  0.04688660     0.08600
H358        H  0.38340912  0.15593925  0.19912073     0.08600
H359        H  0.35208576  0.09484770  0.20458209     0.08600
H360        H  0.33114393  0.14018032  0.17491818     0.05300
C361        C  0.40962148  0.91119443  0.15810941    -0.20500
C362        C  0.45924742  0.89444488  0.15191033    -0.07000
C363        C  0.46284662  0.88428337  0.11857828     0.13800
C364        C  0.44089287  0.91973267  0.09664273    -0.20500
C365        C  0.40607603  0.95918635  0.10640941    -0.07000
C366        C  0.38279765  0.94412585  0.13594116     0.13800
C367        C  0.32732284  0.94871741  0.14007046    -0.23900
H368        H  0.39011351  0.89358488  0.17797086     0.15100
H369        H  0.44797529  0.91132390  0.07203048     0.15100
C370        C  0.46668558  0.82917191  0.10715342    -0.23800
H371        H  0.31782467  0.96481650  0.16407674     0.05400
H372        H  0.31075460  0.90963925  0.13850525     0.08600
H373        H  0.31031383  0.97293165  0.12092211     0.08600
H374        H  0.47792185  0.80264536  0.12691181     0.08600
H375        H  0.49314422  0.82602271  0.08663522     0.08600
H376        H  0.42965171  0.81632567  0.09866652     0.05300
C377        C  0.35050677  0.31550088  0.23168562    -0.20500
C378        C  0.37899359  0.30832558  0.25948242    -0.07000
C379        C  0.36530005  0.33411920  0.28814890     0.13800
C380        C  0.32504912  0.36890557  0.28765426    -0.20500
C381        C  0.29858096  0.37901536  0.25919745    -0.07000
C382        C  0.31069595  0.35076028  0.23098577     0.13800
C383        C  0.28348151  0.35846893  0.19967686    -0.23900
H384        H  0.36082820  0.29494330  0.20989870     0.15100
H385        H  0.31512661  0.38942195  0.30951719     0.15100
C386        C  0.39244092  0.32488274  0.31934954    -0.23800
H387        H  0.29851146  0.33309477  0.18032945     0.05400
H388        H  0.28743550  0.39905324  0.19141796     0.08600
H389        H  0.24350880  0.34904414  0.20287500     0.08600
H390        H  0.43120985  0.33907235  0.31746434     0.08600
H391        H  0.39281558  0.28294663  0.32510951     0.08600
H392        H  0.37430437  0.34554109  0.33974218     0.05300
C393        C  0.65889627  0.39923767  0.22544911    -0.20500
C394        C  0.69991027  0.39095967  0.24570205    -0.07000
C395        C  0.70150345  0.34585176  0.26500749     0.13800
C396        C  0.66194910  0.31089407  0.26369860    -0.20500
C397        C  0.62022850  0.31981940  0.24413360    -0.07000
C398        C  0.61891995  0.36469770  0.22452211     0.13800
C399        C  0.57550601  0.37748111  0.20296369    -0.23900
H400        H  0.65754537  0.43371268  0.21063169     0.15100
H401        H  0.66323892  0.27672551  0.27877937     0.15100
C402        C  0.74355822  0.33479482  0.28800145    -0.23800
H403        H  0.58128975  0.41402821  0.18945819     0.05400
H404        H  0.54110579  0.38244344  0.21760760     0.08600
H405        H  0.57046587  0.34618553  0.18505758     0.08600
H406        H  0.74641174  0.36662796  0.30578022     0.08600
H407        H  0.77912691  0.33059659  0.27450031     0.08600
H408        H  0.73771412  0.29840631  0.30165424     0.05300
C409        C  0.37968139  0.65767625  0.23260794    -0.20500
C410        C  0.38020692  0.69480772  0.25726009    -0.07000
C411        C  0.34156657  0.69406206  0.28069294     0.13800
C412        C  0.30489543  0.65557557  0.27923666    -0.20500
C413        C  0.30517210  0.61768891  0.25501330    -0.07000
C414        C  0.34284192  0.61951524  0.23099508     0.13800
C415        C  0.34458520  0.58206919  0.20321356    -0.23900
H416        H  0.40859891  0.65827021  0.21433764     0.15100
H417        H  0.27599794  0.65478700  0.29752192     0.15100
C418        C  0.33836714  0.73325936  0.30746099    -0.23800
H419        H  0.37524656  0.59092779  0.18609596     0.05400
H420        H  0.30910211  0.58417467  0.18965231     0.08600
H421        H  0.35096830  0.54216755  0.21219636     0.08600
H422        H  0.33486867  0.77275482  0.29720527     0.08600
H423        H  0.37205267  0.73054102  0.32275237     0.08600
H424        H  0.30547519  0.72688978  0.32324198     0.05300
C425        C  0.62523613  0.66728850  0.29023438    -0.20500
C426        C  0.62162646  0.70128455  0.26389564    -0.07000
C427        C  0.65885912  0.69929462  0.23960488     0.13800
C428        C  0.69724219  0.66257094  0.24191295    -0.20500
C429        C  0.69956384  0.62703421  0.26740603    -0.07000
C430        C  0.66341220  0.62997107  0.29225069     0.13800
C431        C  0.66437240  0.59413990  0.32087515    -0.23900
H432        H  0.59728838  0.66904067  0.30910844     0.15100
H433        H  0.72489390  0.66059165  0.22285764     0.15100
C434        C  0.65854063  0.73470974  0.21072352    -0.23800
H435        H  0.63469146  0.60393009  0.33861098     0.05400
H436        H  0.70076236  0.59698999  0.33328574     0.08600
H437        H  0.65819878  0.55374467  0.31298870     0.08600
H438        H  0.66031796  0.77560553  0.21866368     0.08600
H439        H  0.62440637  0.72838097  0.19635680     0.08600
H440        H  0.69093894  0.72753735  0.19456109     0.05300
C441        C  0.88485687  0.55808001  0.37903868    -0.20500
C442        C  0.91017631  0.54399199  0.35035928    -0.07000
C443        C  0.94204591  0.58559814  0.34103255     0.13800
C444        C  0.97106904  0.60964558  0.36516179    -0.20500
C445        C  0.95732111  0.60592918  0.39806812    -0.07000
C446        C  0.90601712  0.59419294  0.40107073     0.13800
C447        C  0.87159767  0.63633515  0.41304451    -0.23900
H448        H  0.84591515  0.54965943  0.38101827     0.15100
H449        H  0.99901036  0.63662119  0.35766722     0.15100
C450        C  0.92855217  0.61981131  0.31292618    -0.23800
H451        H  0.83601477  0.62023571  0.42212313     0.05400
H452        H  0.86284262  0.66291275  0.39282298     0.08600
H453        H  0.88891370  0.65946908  0.43228208     0.08600
H454        H  0.90162152  0.60131741  0.29658049     0.08600
H455        H  0.96226576  0.63080655  0.29912461     0.08600
H456        H  0.91070142  0.65586590  0.32201476     0.05300
C457        C  0.89790541  0.42111644  0.41507963    -0.20500
C458        C  0.94439850  0.39427182  0.41095506    -0.07000
C459        C  0.94108360  0.36635745  0.38193278     0.13800
C460        C  0.91764731  0.39186370  0.35536938    -0.20500
C461        C  0.89707127  0.44226247  0.35802814    -0.07000
C462        C  0.87450362  0.44676546  0.38871103     0.13800
C463        C  0.81965555  0.45825701  0.39130046    -0.23900
H464        H  0.87636647  0.41529945  0.43674911     0.15100
H465        H  0.89958455  0.36780396  0.33789264     0.15100
C466        C  0.92859688  0.30990049  0.38510104    -0.23800
H467        H  0.81201082  0.48506926  0.41157130     0.05400
H468        H  0.79945661  0.42174230  0.39606619     0.08600
H469        H  0.80483899  0.47482725  0.36858173     0.08600
H470        H  0.88775425  0.30602370  0.38866214     0.08600
H471        H  0.94625588  0.29195902  0.40640987     0.08600
H472        H  0.93901285  0.28845258  0.36293567     0.05300
C473        C  0.02210629  0.53438844  0.47120553    -0.20500
C474        C  0.98351982  0.55736438  0.45218858    -0.07000
C475        C  0.93867734  0.52843474  0.45427546     0.13800
C476        C  0.94433354  0.47543604  0.45964281    -0.20500
C477        C  0.99019748  0.45158051  0.45308291    -0.07000
C478        C  0.02744442  0.47943961  0.46970154     0.13800
C479        C  0.06306726  0.45387153  0.49199424    -0.23900
H480        H  0.05282283  0.55729968  0.47990094     0.15100
H481        H  0.91514385  0.45385030  0.47125794     0.15100
C482        C  0.88891541  0.55121421  0.46399161    -0.23800
H483        H  0.10039236  0.47185508  0.49025621     0.05400
H484        H  0.06616367  0.41165145  0.48845855     0.08600
H485        H  0.04759294  0.45995726  0.51590900     0.08600
H486        H  0.87477942  0.53267750  0.48629037     0.08600
H487        H  0.89174030  0.59304528  0.46910567     0.08600
H488        H  0.86054534  0.54258739  0.44562270     0.05300
C489        C  0.03008261  0.42597782  0.30857703    -0.20500
C490        C  0.05460524  0.47199206  0.31530780    -0.07000
C491        C  0.03132320  0.51633019  0.30149257     0.13800
C492        C  0.97985610  0.51459974  0.29604938    -0.20500
C493        C  0.95237044  0.47475498  0.31014474    -0.07000
C494        C  0.97821630  0.42596152  0.30660690     0.13800
C495        C  0.95627495  0.37771252  0.29178239    -0.23900
H496        H  0.05095549  0.39169119  0.30236367     0.15100
H497        H  0.96139517  0.54499258  0.28316624     0.15100
C498        C  0.05761541  0.56518501  0.29308388    -0.23800
H499        H  0.96293553  0.34360130  0.30745270     0.05400
H500        H  0.91613142  0.38260185  0.28634966     0.08600
H501        H  0.97583235  0.36819689  0.26894294     0.08600
H502        H  0.05206572  0.57186763  0.26760726     0.08600
H503        H  0.09792572  0.56377484  0.29595469     0.08600
H504        H  0.04239452  0.59811229  0.30712311     0.05300
C505        C  0.08095740  0.37865020  0.35902318    -0.20500
C506        C  0.10897584  0.42475148  0.36096184    -0.07000
C507        C  0.12482724  0.43181550  0.39328346     0.13800
C508        C  0.09118122  0.41882977  0.41897925    -0.20500
C509        C  0.04557182  0.39204669  0.41335628    -0.07000
C510        C  0.05176388  0.36041465  0.38549571     0.13800
C511        C  0.04447006  0.30313740  0.38743501    -0.23900
H512        H  0.08831578  0.35277269  0.33913707     0.15100
H513        H  0.10162933  0.43150476  0.44205632     0.15100
C514        C  0.17308333  0.45878871  0.40013244    -0.23800
H515        H  0.08145272  0.28363477  0.38643697     0.05400
H516        H  0.02295143  0.28942399  0.36653427     0.08600
H517        H  0.02714193  0.29143453  0.41046243     0.08600
H518        H  0.17425611  0.49736868  0.38858382     0.08600
H519        H  0.20444198  0.43513570  0.39052413     0.08600
H520        H  0.17872090  0.46393302  0.42637432     0.05300
C521        C  0.06287795  0.53505877  0.41337356    -0.20500
C522        C  0.04978168  0.58603194  0.41092539    -0.07000
C523        C  0.07874765  0.60969919  0.38541644     0.13800
C524        C  0.10249809  0.57549524  0.36142057    -0.20500
C525        C  0.08841334  0.52142355  0.36085609    -0.07000
C526        C  0.05523566  0.50938524  0.38553909     0.13800
C527        C  0.00541970  0.48882444  0.37867037    -0.23900
H528        H  0.10009781  0.53022227  0.42309336     0.15100
H529        H  0.12772236  0.59122663  0.34371463     0.15100
C530        C  0.08630044  0.66707408  0.38453142    -0.23800
H531        H  0.00622677  0.44846243  0.37099208     0.05400
H532        H  0.97819645  0.49511901  0.39807870     0.08600
H533        H  0.99313061  0.51108140  0.35869568     0.08600
H534        H  0.10773901  0.67887629  0.40601632     0.08600
H535        H  0.05017347  0.68812131  0.38485527     0.08600
H536        H  0.10742608  0.67855265  0.36267394     0.05300
C537        C  0.58752654  0.99232873  0.36748267    -0.20500
C538        C  0.61085530  0.97313191  0.39402409    -0.07000
C539        C  0.60921672  0.91646469  0.39221392     0.13800
C540        C  0.57353290  0.89179625  0.37012117    -0.20500
C541        C  0.53570006  0.92330108  0.35507573    -0.07000
C542        C  0.54042891  0.97491103  0.36359797     0.13800
C543        C  0.49803879  0.00622781  0.37424012    -0.23900
H544        H  0.61136924  0.98649585  0.34665569     0.15100
H545        H  0.57520585  0.85064593  0.36563614     0.15100
C546        C  0.64978134  0.88308147  0.40602628    -0.23800
H547        H  0.50904731  0.04206223  0.38650906     0.05400
H548        H  0.47152738  0.01349815  0.35534060     0.08600
H549        H  0.47842563  0.98147276  0.39001792     0.08600
H550        H  0.67870681  0.90594675  0.41799864     0.08600
H551        H  0.66850904  0.86161551  0.38619273     0.08600
H552        H  0.63423968  0.85446899  0.42311339     0.05300
C553        C  0.39888707  0.93888491  0.34560862    -0.20500
C554        C  0.44301403  0.91038605  0.35170690    -0.07000
C555        C  0.44198570  0.88580687  0.38244890     0.13800
C556        C  0.41289739  0.90867401  0.40751237    -0.20500
C557        C  0.39035279  0.95768158  0.40262633    -0.07000
C558        C  0.36935074  0.95808675  0.37151123     0.13800
C559        C  0.31455112  0.94652815  0.36946274    -0.23900
H560        H  0.38136009  0.93398604  0.32255534     0.15100
H561        H  0.40805572  0.88881670  0.43017988     0.15100
C562        C  0.46884726  0.83576698  0.38879277    -0.23800
H563        H  0.29902835  0.95895527  0.34598361     0.05400
H564        H  0.29339991  0.96539523  0.38928292     0.08600
H565        H  0.30908151  0.90415810  0.37175356     0.08600
H566        H  0.44160525  0.80624701  0.39665233     0.08600
H567        H  0.49657095  0.84108978  0.40810161     0.08600
H568        H  0.48790890  0.82076271  0.36698661     0.05300
C569        C  0.48195230  0.95974508  0.44618702    -0.20500
C570        C  0.45334269  0.00585941  0.44289453    -0.07000
C571        C  0.47877095  0.04855935  0.45706531     0.13800
C572        C  0.53099845  0.04960201  0.45462848    -0.20500
C573        C  0.55715696  0.00877111  0.43979181    -0.07000
C574        C  0.53413129  0.96077969  0.44570637     0.13800
C575        C  0.56172946  0.91395221  0.45784317    -0.23900
H576        H  0.46522833  0.92417017  0.45316512     0.15100
H577        H  0.55093155  0.07949705  0.46669623     0.15100
C578        C  0.45519947  0.08688575  0.47995730    -0.23800
H579        H  0.54825364  0.90404867  0.48232776     0.05400
H580        H  0.60212172  0.92057569  0.45988244     0.08600
H581        H  0.55451131  0.88038058  0.44212193     0.08600
H582        H  0.41435490  0.08335261  0.48150195     0.08600
H583        H  0.46532617  0.12698179  0.47322677     0.08600
H584        H  0.47053801  0.08043723  0.50432933     0.05300
C585        C  0.45774356  0.99221718  0.29703811    -0.20500
C586        C  0.49672100  0.95805088  0.30489243    -0.07000
C587        C  0.54443670  0.97837847  0.29668526     0.13800
C588        C  0.55175157  0.03164741  0.30303395    -0.20500
C589        C  0.51052652  0.06383088  0.31043872    -0.07000
C590        C  0.46703396  0.04550340  0.29540616     0.13800
C591        C  0.43974994  0.07790101  0.27134140    -0.23900
H592        H  0.42155914  0.97857394  0.29151963     0.15100
H593        H  0.58877634  0.04546543  0.30297085     0.15100
C594        C  0.58796709  0.94416032  0.28748286    -0.23800
H595        H  0.40491009  0.05943329  0.26327220     0.05400
H596        H  0.46586695  0.08196649  0.25123827     0.08600
H597        H  0.43036119  0.11729094  0.27959120     0.08600
H598        H  0.57860434  0.92189712  0.26571931     0.08600
H599        H  0.59761321  0.91635836  0.30670852     0.08600
H600        H  0.62160189  0.96737390  0.28210633     0.05300
C601        C  0.63839518  0.07893166  0.37554092    -0.20500
C602        C  0.61533761  0.07211778  0.40622553    -0.07000
C603        C  0.58436442  0.11540413  0.41257790     0.13800
C604        C  0.55573167  0.13649539  0.38720348    -0.20500
C605        C  0.55951261  0.11808303  0.35529605    -0.07000
C606        C  0.61061670  0.10219597  0.34961654     0.13800
C607        C  0.64052923  0.11847986  0.32066601    -0.23900
H608        H  0.67285825  0.05860625  0.37010198     0.15100
H609        H  0.53922777  0.17371351  0.39099932     0.15100
C610        C  0.59641124  0.15098339  0.44008187    -0.23800
H611        H  0.66028054  0.08485969  0.30979031     0.05400
H612        H  0.66926783  0.14636224  0.32843974     0.08600
H613        H  0.61792730  0.13789327  0.30229307     0.08600
H614        H  0.62162080  0.13226184  0.45771141     0.08600
H615        H  0.56168685  0.16380610  0.45244594     0.08600
H616        H  0.61550288  0.18578709  0.43062736     0.05300
C617        C  0.42732406  0.10721612  0.40913604    -0.20500
C618        C  0.40261795  0.06070936  0.40142947    -0.07000
C619        C  0.38405517  0.06497691  0.36969825     0.13800
C620        C  0.41363495  0.08949852  0.34576518    -0.20500
C621        C  0.45864596  0.11563806  0.35353958    -0.07000
C622        C  0.45228882  0.13687262  0.38494395     0.13800
C623        C  0.45053028  0.19475151  0.38868936    -0.23900
H624        H  0.41752047  0.12580537  0.43132494     0.15100
H625        H  0.39639299  0.09483945  0.32292234     0.15100
C626        C  0.32875851  0.06587140  0.36442300    -0.23800
H627        H  0.46707872  0.20628139  0.41201144     0.05400
H628        H  0.47041439  0.21433888  0.36866502     0.08600
H629        H  0.41112401  0.20811041  0.38839356     0.08600
H630        H  0.30833477  0.05081280  0.38563724     0.08600
H631        H  0.31932776  0.04419468  0.34233343     0.08600
H632        H  0.31618759  0.10648653  0.36094028     0.05300
C633        C  0.50825331  0.11131808  0.83338280    -0.02600
C634        C  0.39821237  0.00864204  0.92586551    -0.02600
C635        C  0.60511812  0.00656113  0.92276339    -0.02600
C636        C  0.48380775  0.90949193  0.83044618    -0.02600
C637        C  0.09489633  0.46876264  0.83654154    -0.02600
C638        C  0.98750047  0.39273010  0.93301189    -0.02600
C639        C  0.99178511  0.59589351  0.92539367    -0.02600
C640        C  0.89915057  0.48334386  0.83074027    -0.02600
In641      In  0.49142604  0.79813912  0.75681635     1.36900
C642        C  0.48581929  0.86372264  0.80758872     0.77400
O643        O  0.56368812  0.76420317  0.73993199    -0.61000
O644        O  0.53551571  0.73870370  0.78473663    -0.51900
C645        C  0.41428173  0.73287242  0.75556633     0.70100
O646        O  0.45489683  0.72455758  0.74104180    -0.46800
C647        C  0.50006388  0.85745883  0.70237959     0.74800
O648        O  0.45160443  0.85705973  0.78735181    -0.58700
O649        O  0.52860754  0.85876951  0.72624799    -0.48700
O650        O  0.52319124  0.83490719  0.80292358    -0.55100
C651        C  0.57017352  0.73579689  0.76418634     0.85000
O652        O  0.41298739  0.77532746  0.77031521    -0.57000
O653        O  0.46606588  0.82455636  0.70571894    -0.60300
In654      In  0.79537361  0.50979333  0.75513789     1.36900
C655        C  0.84928519  0.52890653  0.70027242     0.77400
O656        O  0.76729744  0.59067098  0.74908931    -0.61000
O657        O  0.72974974  0.54280534  0.78233180    -0.51900
C658        C  0.73220057  0.43266112  0.74574986     0.70100
O659        O  0.77422636  0.42631033  0.75851886    -0.46800
C660        C  0.85689508  0.48967371  0.80622887     0.74800
O661        O  0.81882747  0.49234024  0.70289844    -0.58700
O662        O  0.83045989  0.52996836  0.80365987    -0.48700
O663        O  0.84951421  0.55727392  0.72494427    -0.55100
C664        C  0.73114067  0.58601989  0.76832174     0.85000
O665        O  0.72363402  0.47837297  0.73668182    -0.57000
O666        O  0.85025886  0.45878944  0.78328913    -0.60300
In667      In  0.19454334  0.49844053  0.76008239     1.36900
C668        C  0.13752296  0.47593575  0.81241325     0.77400
O669        O  0.26049605  0.53669992  0.73765742    -0.61000
O670        O  0.22557480  0.57515127  0.77646782    -0.51900
C671        C  0.25993593  0.42054496  0.75995658     0.70100
O672        O  0.25347870  0.45046570  0.78354923    -0.46800
C673        C  0.12970117  0.52086229  0.71128541     0.74800
O674        O  0.14103071  0.44789649  0.78762934    -0.58700
O675        O  0.14086877  0.55195239  0.73341867    -0.48700
O676        O  0.16624043  0.51420061  0.81156711    -0.55100
C677        C  0.26048800  0.57534743  0.75599084     0.85000
O678        O  0.23185432  0.43011956  0.73642843    -0.57000
O679        O  0.15180524  0.47790642  0.71398381    -0.60300
In680      In  0.50288974  0.21226353  0.75261708     1.36900
C681        C  0.49956038  0.15346544  0.69796751     0.77400
O682        O  0.53425113  0.28541536  0.73341584    -0.61000
O683        O  0.58133925  0.23815358  0.76182086    -0.51900
C684        C  0.42297773  0.27255981  0.75870225     0.70100
O685        O  0.42351431  0.23281133  0.74108782    -0.46800
C686        C  0.50939864  0.15324418  0.80721494     0.74800
O687        O  0.46767819  0.15329069  0.72022858    -0.58700
O688        O  0.53777014  0.14979630  0.78301712    -0.48700
O689        O  0.53261766  0.18669051  0.70251271    -0.55100
C690        C  0.57636655  0.27963056  0.74608621     0.85000
O691        O  0.46323408  0.28047494  0.77322298    -0.57000
O692        O  0.47779992  0.18905247  0.80428610    -0.60300
C693        C  0.39998354  0.01521810  0.58397803    -0.02600
C694        C  0.50469891  0.89650464  0.67476207    -0.02600
C695        C  0.60837379  0.99787506  0.58632037    -0.02600
C696        C  0.49873057  0.11351545  0.67068718    -0.02600
C697        C  0.99031388  0.41179393  0.59443727    -0.02600
C698        C  0.89046741  0.53072913  0.67444576    -0.02600
C699        C  0.01182328  0.62517997  0.58686786    -0.02600
C700        C  0.08833995  0.53273915  0.68697043    -0.02600
In701      In  0.70277343  0.00302761  0.50354888     1.36900
C702        C  0.64242485  0.00126441  0.95020668     0.77400
O703        O  0.77064063  0.96015983  0.98833141    -0.61000
O704        O  0.72712684  0.92029240  0.51160644    -0.51900
C705        C  0.76376262  0.08333902  0.51083305     0.70100
O706        O  0.75384030  0.04115314  0.03354809    -0.46800
C707        C  0.64397708  0.99743136  0.55725334     0.74800
O708        O  0.64228109  0.03345263  0.97285885    -0.58700
O709        O  0.64528496  0.96286201  0.53588176    -0.48700
O710        O  0.67266227  0.96463096  0.95473790    -0.55100
C711        C  0.76911478  0.92603833  0.49839928     0.85000
O712        O  0.73237882  0.08096686  0.48834091    -0.57000
O713        O  0.67334087  0.03388389  0.55126410    -0.60300
In714      In  0.01061088  0.71371523  0.50050624     1.36900
C715        C  0.01489633  0.66148790  0.55761988     0.77400
O716        O  0.97740330  0.79135054  0.48922704    -0.61000
O717        O  0.92276380  0.72536255  0.00633339    -0.51900
C718        C  0.09012149  0.77494019  0.49992176     0.70100
O719        O  0.07321078  0.75439575  0.52514712    -0.46800
C720        C  0.99622085  0.64267567  0.94759927     0.74800
O721        O  0.03975531  0.64982205  0.53262426    -0.58700
O722        O  0.95975685  0.66013661  0.96348151    -0.48700
O723        O  0.98874772  0.70162213  0.55384176    -0.55100
C724        C  0.93365964  0.77939331  0.49706802     0.85000
O725        O  0.06930186  0.74992601  0.97547510    -0.57000
O726        O  0.03726024  0.66034718  0.95712022    -0.60300
In727      In  0.99389912  0.30410189  0.51698689     1.36900
C728        C  0.98654430  0.35425759  0.96089006     0.77400
O729        O  0.91379315  0.27475673  0.00219387    -0.61000
O730        O  0.95071586  0.23649071  0.53580923    -0.51900
C731        C  0.07457774  0.24289761  0.51341235     0.70100
O732        O  0.06685749  0.27161675  0.03195398    -0.46800
C733        C  0.99563456  0.36941116  0.56866097     0.74800
O734        O  0.02211239  0.32414017  0.96760017    -0.58700
O735        O  0.97962474  0.32394703  0.57100554    -0.48700
O736        O  0.95289753  0.35476491  0.98219193    -0.55100
C737        C  0.91390174  0.23342240  0.01817839     0.85000
O738        O  0.03381838  0.23293747  0.49999483    -0.57000
O739        O  0.01125199  0.37921202  0.54073030    -0.60300
In740      In  0.30227748  0.01305029  0.50409127     1.36900
C741        C  0.36246343  0.01325056  0.55649286     0.77400
O742        O  0.27093524  0.94129226  0.48235884    -0.61000
O743        O  0.23622051  0.96470729  0.02910342    -0.51900
C744        C  0.23517470  0.09108725  0.50396787     0.70100
O745        O  0.26990539  0.08808710  0.52415168    -0.46800
C746        C  0.35943849  0.00941859  0.95300751     0.74800
O747        O  0.35969132  0.04875870  0.53577691    -0.58700
O748        O  0.35318761  0.97072290  0.97108469    -0.48700
O749        O  0.33406005  0.97600481  0.55053546    -0.55100
C750        C  0.24190033  0.93198042  0.50549128     0.85000
O751        O  0.23495722  0.04922122  0.98314156    -0.57000
O752        O  0.33361499  0.04806769  0.96145862    -0.60300
C753        C  0.19737759  0.17058463  0.52878777    -0.20500
C754        C  0.19599001  0.13250335  0.50458427    -0.07000
C755        C  0.15174360  0.12515178  0.98181128     0.13800
C756        C  0.11816614  0.17092478  0.48582445    -0.20500
C757        C  0.11852610  0.20768312  0.51059251    -0.07000
C758        C  0.15957163  0.20850005  0.53186337     0.13800
C759        C  0.16350365  0.24831862  0.55817593    -0.23900
H760        H  0.22797842  0.17042797  0.54568029     0.15100
H761        H  0.08360280  0.16260653  0.96760567     0.15100
C762        C  0.14908403  0.08748975  0.95420338    -0.23800
H763        H  0.19767744  0.24268519  0.57274245     0.05400
H764        H  0.13092183  0.24565051  0.57462709     0.08600
H765        H  0.16506514  0.28763380  0.54749933     0.08600
H766        H  0.14943897  0.05690464  0.46306105     0.08600
H767        H  0.18272509  0.09106859  0.93875055     0.08600
H768        H  0.11612311  0.09481272  0.93876886     0.05300
C769        C  0.15100644  0.82692001  0.53048244    -0.20500
C770        C  0.13258599  0.81142819  0.50039816    -0.07000
C771        C  0.15385860  0.82358704  0.97560860     0.13800
C772        C  0.19158601  0.86035109  0.97915111    -0.20500
C773        C  0.20652980  0.88842217  0.50491397    -0.07000
C774        C  0.18739218  0.86528004  0.53316039     0.13800
C775        C  0.20530760  0.88020557  0.56617149    -0.23900
H776        H  0.13582964  0.81000026  0.55224132     0.15100
H777        H  0.21540373  0.86896715  0.95874722     0.15100
C778        C  0.14875000  0.79707461  0.94352190    -0.23800
H779        H  0.18866744  0.85562620  0.58525993     0.05400
H780        H  0.19465885  0.92083969  0.57148908     0.08600
H781        H  0.24641260  0.87564502  0.56744476     0.08600
H782        H  0.11163161  0.80584128  0.93312278     0.06200
H783        H  0.15358334  0.75468568  0.94650553     0.08600
H784        H  0.17726160  0.81021696  0.92594582     0.05300
C785        C  0.80303450  0.16347977  0.48947358    -0.20500
C786        C  0.79962933  0.12669228  0.51432188    -0.07000
C787        C  0.83157636  0.13142664  0.54123658     0.13800
C788        C  0.86670005  0.17123762  0.54190869    -0.20500
C789        C  0.87145763  0.20670045  0.51656860    -0.07000
C790        C  0.83898201  0.19234760  0.99111389     0.13800
C791        C  0.84075007  0.22947493  0.96311823    -0.23900
H792        H  0.77790922  0.15076896  0.97060560     0.15100
H793        H  0.89147390  0.17405914  0.56232064     0.15100
C794        C  0.82964505  0.09481379  0.56946533    -0.23800
H795        H  0.81251954  0.22022010  0.94460269     0.05400
H796        H  0.87844289  0.23768298  0.45051143     0.08600
H797        H  0.83298537  0.26941223  0.97159448     0.08600
H798        H  0.83996185  0.05515043  0.56159242     0.08600
H799        H  0.79168223  0.09512742  0.58017887     0.08600
H800        H  0.85608850  0.10585231  0.58868150     0.05300
C801        C  0.85075121  0.89552410  0.47757726    -0.20500
C802        C  0.80848575  0.88536250  0.49657605    -0.07000
C803        C  0.80668478  0.83865002  0.51433180     0.13800
C804        C  0.84776532  0.80463362  0.51340841    -0.20500
C805        C  0.89080871  0.81594944  0.49544849    -0.07000
C806        C  0.89182102  0.86171512  0.47674650     0.13800
C807        C  0.93554285  0.87535586  0.45552254    -0.23900
H808        H  0.85212859  0.93079384  0.46352490     0.15100
H809        H  0.84665589  0.76939018  0.52750553     0.15100
C810        C  0.75686174  0.81713433  0.03767019    -0.23800
H811        H  0.92846411  0.91111633  0.44139981     0.05400
H812        H  0.91662553  0.81749607  0.92696624     0.08600
H813        H  0.96899737  0.88224248  0.47042186     0.08600
H814        H  0.72068253  0.81304298  0.02516976     0.08600
H815        H  0.75643402  0.85429980  0.55381645     0.08600
H816        H  0.76393925  0.78082694  0.05125559     0.05300
C817        C  0.05841660  0.65442694  0.64080240    -0.20500
C818        C  0.06051964  0.63197255  0.60982910    -0.07000
C819        C  0.10611280  0.60323540  0.60669525     0.13800
C820        C  0.12222374  0.57175328  0.63287880    -0.20500
C821        C  0.10156861  0.57993004  0.66385360    -0.07000
C822        C  0.08371848  0.63128350  0.66735560     0.13800
C823        C  0.11602052  0.66753693  0.68624883    -0.23900
H824        H  0.04712038  0.69453147  0.64237860     0.15100
H825        H  0.14921311  0.54107037  0.62891678     0.15100
C826        C  0.14402678  0.61808758  0.58164823    -0.23800
H827        H  0.14658261  0.68161579  0.67049710     0.05400
H828        H  0.13365530  0.64775356  0.70701352     0.08600
H829        H  0.09436215  0.70162561  0.69480608     0.08600
H830        H  0.17213604  0.64354103  0.59282285     0.08600
H831        H  0.12644575  0.63948214  0.56148960     0.08600
H832        H  0.16371702  0.58333693  0.57215870     0.05300
C833        C  0.95755082  0.57783147  0.70931846    -0.20500
C834        C  0.93891616  0.53145566  0.69660182    -0.07000
C835        C  0.96383366  0.48946959  0.71162541     0.13800
C836        C  0.01527414  0.49454171  0.71934689    -0.20500
C837        C  0.04039098  0.54013036  0.70949324    -0.07000
C838        C  0.00909614  0.58477414  0.71267113     0.13800
C839        C  0.02485430  0.63515870  0.72720648    -0.23900
H840        H  0.93243252  0.60748402  0.71742214     0.15100
H841        H  0.03638980  0.46043706  0.72623925     0.15100
C842        C  0.93700255  0.44503107  0.72530592    -0.23800
H843        H  0.01707104  0.66739803  0.71031663     0.05400
H844        H  0.00272091  0.64294428  0.74932105     0.08600
H845        H  0.06425623  0.63403599  0.73459588     0.08600
H846        H  0.95007632  0.40779126  0.71501652     0.08600
H847        H  0.89631597  0.45004643  0.72535471     0.08600
H848        H  0.94549287  0.44557675  0.75031067     0.05300
C849        C  0.88296654  0.58383258  0.61803843    -0.20500
C850        C  0.89185090  0.58307687  0.65168950    -0.07000
C851        C  0.91508485  0.63093217  0.65968098     0.13800
C852        C  0.95312583  0.65094172  0.63895416    -0.20500
C853        C  0.95941330  0.63150291  0.60713341    -0.07000
C854        C  0.91223566  0.61400900  0.59636850     0.13800
C855        C  0.88147371  0.65023962  0.57578047    -0.23900
H856        H  0.84573380  0.57546516  0.61058689     0.15100
H857        H  0.96957742  0.68719516  0.64539843     0.15100
C858        C  0.88876390  0.66862419  0.68166669    -0.23800
H859        H  0.86252548  0.67909550  0.59150020     0.05400
H860        H  0.85237508  0.62888053  0.56252069     0.08600
H861        H  0.90405363  0.67203695  0.55832646     0.08600
H862        H  0.85891305  0.64947333  0.69574779     0.08600
H863        H  0.87127865  0.69966850  0.66699087     0.08600
H864        H  0.91558206  0.68694204  0.69829812     0.05300
C865        C  0.96819812  0.49094561  0.55861766    -0.20500
C866        C  0.00376597  0.46350946  0.57662700    -0.07000
C867        C  0.05231806  0.48515613  0.57307086     0.13800
C868        C  0.05511089  0.53836985  0.56665696    -0.20500
C869        C  0.01230758  0.56983501  0.57006105    -0.07000
C870        C  0.97071075  0.54501418  0.55679875     0.13800
C871        C  0.93742054  0.57102845  0.53356309    -0.23900
H872        H  0.94045520  0.47060766  0.54501729     0.15100
H873        H  0.08901015  0.55384581  0.55738890     0.15100
C874        C  0.09966868  0.45441887  0.56884110    -0.23800
H875        H  0.94736455  0.55389363  0.51080390     0.05400
H876        H  0.94417657  0.61258573  0.53059967     0.08600
H877        H  0.89786172  0.56263620  0.53903890     0.08600
H878        H  0.09208065  0.41283511  0.56596650     0.08600
H879        H  0.11956796  0.46658875  0.54671052     0.08600
H880        H  0.12550548  0.46231580  0.58888913     0.05300
C881        C  0.00496283  0.43789732  0.65045960    -0.20500
C882        C  0.02459265  0.40904496  0.62576881    -0.07000
C883        C  0.07810664  0.40452378  0.63059835     0.13800
C884        C  0.10289860  0.44161856  0.65214466    -0.20500
C885        C  0.07485059  0.48571816  0.66406523    -0.07000
C886        C  0.02586968  0.48516440  0.65355666     0.13800
C887        C  0.00282564  0.53048598  0.63856159    -0.23900
H888        H  0.00643604  0.41573218  0.67260006     0.15100
H889        H  0.14195753  0.43704789  0.65776487     0.15100
C890        C  0.10652393  0.35839560  0.61822257    -0.23800
H891        H  0.96832096  0.52152418  0.62552025     0.05400
H892        H  0.03117452  0.54310016  0.62279191     0.08600
H893        H  0.99759098  0.56332603  0.65436987     0.08600
H894        H  0.08284230  0.33407715  0.60262741     0.08600
H895        H  0.11915476  0.33458994  0.63889689     0.08600
H896        H  0.13993309  0.37061552  0.60448945     0.05300
C897        C  0.89592543  0.44808967  0.59697946    -0.20500
C898        C  0.93268200  0.41210460  0.60714044    -0.07000
C899        C  0.91840886  0.39196422  0.63791150     0.13800
C900        C  0.89626054  0.42684060  0.66072079    -0.20500
C901        C  0.88697573  0.47920078  0.65190006    -0.07000
C902        C  0.86957574  0.47870948  0.61979548     0.13800
C903        C  0.81459720  0.48628080  0.61411374    -0.23900
H904        H  0.88067859  0.44410846  0.57310824     0.15100
H905        H  0.88240556  0.41114360  0.68280339     0.15100
C906        C  0.93046769  0.33754679  0.64781875    -0.23800
H907        H  0.79740259  0.51127762  0.63292334     0.05400
H908        H  0.80797058  0.50353874  0.59002368     0.08600
H909        H  0.79589137  0.44818650  0.61506425     0.08600
H910        H  0.94909278  0.31586223  0.62815199     0.08600
H911        H  0.89546913  0.31734783  0.65419370     0.08600
H912        H  0.95526799  0.33752380  0.66907338     0.05300
C913        C  0.62472120  0.06167913  0.63681343    -0.20500
C914        C  0.61165302  0.05437689  0.60425013    -0.07000
C915        C  0.58416718  0.09855422  0.59240842     0.13800
C916        C  0.55076864  0.12588854  0.61381486    -0.20500
C917        C  0.54911654  0.11479434  0.64740493    -0.07000
C918        C  0.59778952  0.09730200  0.65704097     0.13800
C919        C  0.63149023  0.13478153  0.67407300    -0.23900
H920        H  0.66094606  0.04828283  0.64436791     0.15100
H921        H  0.52632887  0.15390178  0.60334883     0.15100
C922        C  0.58596530  0.11347276  0.55735441    -0.23800
H923        H  0.66442363  0.11454651  0.68434888     0.05400
H924        H  0.61311166  0.15582790  0.69380334     0.08600
H925        H  0.64511583  0.16379690  0.65647653     0.08600
H926        H  0.57424328  0.08151269  0.54156385     0.08600
H927        H  0.62457638  0.12440832  0.55081814     0.08600
H928        H  0.56134177  0.14717706  0.55231123     0.05300
C929        C  0.45603045  0.03141860  0.69816066    -0.20500
C930        C  0.49931555  0.05942645  0.68993107    -0.07000
C931        C  0.54183630  0.03389832  0.70340826     0.13800
C932        C  0.54286060  0.97914598  0.70368927    -0.20500
C933        C  0.50139483  0.95060981  0.69324843    -0.07000
C934        C  0.45678423  0.97733810  0.70128931     0.13800
C935        C  0.41489967  0.95333260  0.71997056    -0.23900
H936        H  0.42398133  0.05102513  0.70728917     0.15100
H937        H  0.57344652  0.95982917  0.71488039     0.15100
C938        C  0.58058499  0.06045877  0.72305977    -0.23800
H939        H  0.37868372  0.96072546  0.70805823     0.05400
H940        H  0.41154337  0.97290987  0.74302779     0.08600
H941        H  0.42102971  0.91167568  0.72477934     0.08600
H942        H  0.58072030  0.04387593  0.74737101     0.08600
H943        H  0.57290409  0.10207863  0.72592990     0.08600
H944        H  0.61819984  0.05272108  0.71304114     0.05300
C945        C  0.56517547  0.86940503  0.62539738    -0.20500
C946        C  0.55961742  0.88871523  0.65704826    -0.07000
C947        C  0.60422034  0.91581888  0.66485736     0.13800
C948        C  0.62809750  0.94752859  0.64123873    -0.20500
C949        C  0.61332095  0.94670759  0.60858395    -0.07000
C950        C  0.59012116  0.89834314  0.60070788     0.13800
C951        C  0.59438359  0.87496562  0.56769074    -0.23900
H952        H  0.55128134  0.83160088  0.62029147     0.15100
H953        H  0.66154518  0.96747946  0.64774520     0.15100
C954        C  0.63583364  0.89782219  0.69260940    -0.23800
H955        H  0.57811377  0.83569174  0.56696101     0.05400
H956        H  0.63426576  0.87115634  0.56089943     0.08600
H957        H  0.57458638  0.89829986  0.54961253     0.08600
H958        H  0.61508334  0.87215173  0.70910950     0.08600
H959        H  0.65047653  0.93123102  0.70625378     0.08600
H960        H  0.66821872  0.87552083  0.68311358     0.05300
C961        C  0.53048163  0.98779789  0.54424041    -0.20500
C962        C  0.55363116  0.99636128  0.57480548    -0.07000
C963        C  0.52094425  0.01303251  0.59781246     0.13800
C964        C  0.48500789  0.04462286  0.58866870    -0.20500
C965        C  0.45204568  0.02352162  0.56785142    -0.07000
C966        C  0.47662787  0.99416438  0.54267133     0.13800
C967        C  0.44784696  0.96588163  0.51782599    -0.23900
H968        H  0.55142500  0.97308239  0.52393542     0.15100
H969        H  0.47531352  0.06569595  0.60855445     0.15100
C970        C  0.51939953  0.99456479  0.63045291    -0.23800
H971        H  0.47272852  0.93857164  0.50519768     0.05400
H972        H  0.43042947  0.99430458  0.50199700     0.08600
H973        H  0.41722809  0.94238185  0.52762777     0.08600
H974        H  0.55071891  0.00728426  0.64453999     0.08600
H975        H  0.52008325  0.95438073  0.62708681     0.08600
H976        H  0.48312906  0.00303569  0.64175588     0.05300
C977        C  0.43694178  0.14492403  0.62123943    -0.20500
C978        C  0.44519955  0.12196546  0.65193773    -0.07000
C979        C  0.39994087  0.09769177  0.66085995     0.13800
C980        C  0.37760677  0.06320163  0.63888243    -0.20500
C981        C  0.38813813  0.06667104  0.60571580    -0.07000
C982        C  0.40656362  0.11817997  0.59777748     0.13800
C983        C  0.40105609  0.14121347  0.56485420    -0.23900
H984        H  0.45520819  0.18053049  0.61495993     0.15100
H985        H  0.34411747  0.04447464  0.64630232     0.15100
C986        C  0.36639136  0.12172509  0.68611164    -0.23800
H987        H  0.41632207  0.18093551  0.56391031     0.05400
H988        H  0.36097417  0.14362899  0.55858407     0.08600
H989        H  0.42150205  0.11784816  0.54680882     0.08600
H990        H  0.38466328  0.15380151  0.69887616     0.08600
H991        H  0.35323852  0.09260204  0.70373656     0.08600
H992        H  0.33299548  0.13844238  0.67420920     0.05300
C993        C  0.40862905  0.91249220  0.65559248    -0.20500
C994        C  0.45763907  0.89378102  0.64938736    -0.07000
C995        C  0.46123158  0.88432367  0.61593142     0.13800
C996        C  0.44107610  0.92123166  0.59422805    -0.20500
C997        C  0.40693448  0.96115732  0.60409698    -0.07000
C998        C  0.38284107  0.94612567  0.63337017     0.13800
C999        C  0.32733360  0.95132902  0.63702634    -0.23900
H1000       H  0.38836105  0.89541190  0.67528998     0.15100
H1001       H  0.44932704  0.91391032  0.56963713     0.15100
C1002       C  0.46290065  0.82945077  0.60389605    -0.23800
H1003       H  0.31757909  0.96696469  0.66112267     0.05400
H1004       H  0.31035474  0.91250728  0.63497454     0.08600
H1005       H  0.31098736  0.97611746  0.61791672     0.08600
H1006       H  0.47319937  0.80194569  0.62334273     0.08600
H1007       H  0.48920853  0.82577405  0.58332457     0.08600
H1008       H  0.42537889  0.81843537  0.59527397     0.05300
C1009       C  0.34263978  0.30513652  0.73720396    -0.20500
C1010       C  0.37940164  0.30796823  0.76104024    -0.07000
C1011       C  0.37454361  0.34568105  0.78556585     0.13800
C1012       C  0.33433271  0.38049838  0.78474916    -0.20500
C1013       C  0.29888227  0.37942528  0.76003642    -0.07000
C1014       C  0.30271958  0.34053680  0.73614857     0.13800
C1015       C  0.26538920  0.33586604  0.70937161    -0.23900
H1016       H  0.34595763  0.27597393  0.71859460     0.15100
H1017       H  0.33139617  0.40980134  0.80328870     0.15100
C1018       C  0.41111745  0.34979927  0.81287153    -0.23800
H1019       H  0.27338417  0.30195307  0.69375086     0.05400
H1020       H  0.26650023  0.37081103  0.69389135     0.08600
H1021       H  0.22743930  0.33106932  0.71961015     0.08600
H1022       H  0.44823799  0.36110858  0.80351463     0.08600
H1023       H  0.41387871  0.31224437  0.82572752     0.08600
H1024       H  0.39952594  0.37957125  0.83069666     0.05300
C1025       C  0.64580691  0.40606608  0.73475666    -0.20500
C1026       C  0.69451290  0.39129975  0.74304019    -0.07000
C1027       C  0.70473896  0.33864799  0.75002895     0.13800
C1028       C  0.66548035  0.30312732  0.75020865    -0.20500
C1029       C  0.61642831  0.31844527  0.74320189    -0.07000
C1030       C  0.60670063  0.37060444  0.73467748     0.13800
C1031       C  0.55517948  0.39011165  0.72644698    -0.23900
H1032       H  0.63780159  0.44617676  0.72910169     0.15100
H1033       H  0.67315474  0.26304359  0.75613571     0.15100
C1034       C  0.75661417  0.31917644  0.75716129    -0.23800
H1035       H  0.55469559  0.43226262  0.72134409     0.05400
H1036       H  0.52934719  0.38319441  0.74691878     0.08600
H1037       H  0.54153068  0.37028618  0.70457313     0.08600
H1038       H  0.77031183  0.33652689  0.77981608     0.08600
H1039       H  0.78200151  0.32906644  0.73693977     0.08600
H1040       H  0.75774849  0.27653180  0.76023739     0.05300
C1041       C  0.37671329  0.65277453  0.73427908    -0.20500
C1042       C  0.37252368  0.69517726  0.75518349    -0.07000
C1043       C  0.32971648  0.69928680  0.77522039     0.13800
C1044       C  0.29373148  0.66000273  0.77453730    -0.20500
C1045       C  0.29866278  0.61689424  0.75413831    -0.07000
C1046       C  0.34049012  0.61405433  0.73316604     0.13800
C1047       C  0.34797893  0.57051633  0.70946204    -0.23900
H1048       H  0.40891246  0.64967916  0.71855514     0.15100
H1049       H  0.26157261  0.66289911  0.79031192     0.15100
C1050       C  0.32161503  0.74428319  0.79772288    -0.23800
H1051       H  0.38246591  0.57526771  0.69492810     0.05400
H1052       H  0.31626245  0.56950000  0.69245136     0.08600
H1053       H  0.35126873  0.53312471  0.72242379     0.08600
H1054       H  0.31959644  0.78083863  0.78376474     0.08600
H1055       H  0.35249943  0.74612013  0.81531987     0.08600
H1056       H  0.28627115  0.74082245  0.81153300     0.05300
C1057       C  0.61031383  0.65833965  0.78868731    -0.20500
C1058       C  0.61404041  0.70099509  0.76789217    -0.07000
C1059       C  0.65900682  0.70864863  0.75066296     0.13800
C1060       C  0.69738838  0.67182779  0.75309597    -0.20500
C1061       C  0.69225875  0.62697633  0.77186244    -0.07000
C1062       C  0.64857559  0.62102951  0.79080001     0.13800
C1063       C  0.64109738  0.57526460  0.81273264    -0.23900
H1064       H  0.57635409  0.65299331  0.80245271     0.15100
H1065       H  0.73110505  0.67735900  0.73911873     0.15100
C1066       C  0.66730342  0.75540218  0.72962920    -0.23800
H1067       H  0.60553563  0.57820162  0.82640439     0.05400
H1068       H  0.67183575  0.57305486  0.83045777     0.08600
H1069       H  0.63988471  0.53910619  0.79842279     0.08600
H1070       H  0.66112208  0.79123685  0.74383260     0.08600
H1071       H  0.64169006  0.75475903  0.70878313     0.08600
H1072       H  0.70584997  0.75649612  0.71984566     0.05300
C1073       C  0.87955235  0.55316688  0.87773761    -0.20500
C1074       C  0.90512930  0.53880520  0.84925192    -0.07000
C1075       C  0.93696314  0.58036451  0.83979772     0.13800
C1076       C  0.96617669  0.60427567  0.86389192    -0.20500
C1077       C  0.95211244  0.60079564  0.89671975    -0.07000
C1078       C  0.90067281  0.58948920  0.89962257     0.13800
C1079       C  0.86638538  0.63205798  0.91115189    -0.23900
H1080       H  0.84054491  0.54499358  0.87953896     0.15100
H1081       H  0.99464374  0.63085088  0.85655540     0.15100
C1082       C  0.92279353  0.61482125  0.81194197    -0.23800
H1083       H  0.83042300  0.61637515  0.91988315     0.05400
H1084       H  0.85842692  0.65864258  0.89079343     0.08600
H1085       H  0.88341163  0.65505191  0.93055467     0.08600
H1086       H  0.89629147  0.59607915  0.79539998     0.08600
H1087       H  0.95634386  0.62669402  0.79828939     0.08600
H1088       H  0.90421764  0.65031515  0.82127125     0.05300
C1089       C  0.89150773  0.41404137  0.91366904    -0.20500
C1090       C  0.93829086  0.38759085  0.90983415    -0.07000
C1091       C  0.93634626  0.36112569  0.88020711     0.13800
C1092       C  0.91290728  0.38695779  0.85379440    -0.20500
C1093       C  0.89177570  0.43706246  0.85669344    -0.07000
C1094       C  0.86871484  0.44065782  0.88733705     0.13800
C1095       C  0.81417714  0.45361953  0.88993999    -0.23900
H1096       H  0.86984571  0.40824754  0.93530053     0.15100
H1097       H  0.89546097  0.36302608  0.83602608     0.15100
C1098       C  0.92705275  0.30389158  0.88189606    -0.23800
H1099       H  0.80726172  0.48083603  0.91010113     0.05400
H1100       H  0.79310779  0.41772976  0.89494558     0.08600
H1101       H  0.79964547  0.47020866  0.86715280     0.08600
H1102       H  0.88631719  0.29725433  0.88376919     0.08600
H1103       H  0.94371065  0.28608997  0.90358390     0.08600
H1104       H  0.94069431  0.28436831  0.85976379     0.05300
C1105       C  0.01554962  0.52909725  0.97030188    -0.20500
C1106       C  0.97741058  0.55255778  0.95107868    -0.07000
C1107       C  0.93245769  0.52399038  0.95254869     0.13800
C1108       C  0.93771059  0.47081598  0.95717554    -0.20500
C1109       C  0.98375396  0.44670155  0.95131197    -0.07000
C1110       C  0.02058380  0.47407377  0.96865917     0.13800
C1111       C  0.05631224  0.44777276  0.99067345    -0.23900
H1112       H  0.04628839  0.55173482  0.97923038     0.15100
H1113       H  0.90834583  0.44947264  0.96875681     0.15100
C1114       C  0.88295160  0.54713540  0.96261437    -0.23800
H1115       H  0.09314610  0.46690786  0.98977082     0.05400
H1116       H  0.06089309  0.40604405  0.98601699     0.08600
H1117       H  0.04014725  0.45067288  0.01462690     0.08600
H1118       H  0.86869494  0.52844885  0.98483136     0.08600
H1119       H  0.88619349  0.58888336  0.96790223     0.08600
H1120       H  0.85433516  0.53914981  0.94428953     0.05300
C1121       C  0.02403944  0.42073792  0.80687111    -0.20500
C1122       C  0.04884033  0.46650491  0.81402447    -0.07000
C1123       C  0.02581113  0.51129657  0.80066579     0.13800
C1124       C  0.97442769  0.50988744  0.79479881    -0.20500
C1125       C  0.94646507  0.46999761  0.80845606    -0.07000
C1126       C  0.97212857  0.42117423  0.80454532     0.13800
C1127       C  0.94988687  0.37354622  0.78916780    -0.23900
H1128       H  0.04472783  0.38626187  0.80079373     0.15100
H1129       H  0.95637197  0.54066945  0.78205906     0.15100
C1130       C  0.05227367  0.56060374  0.79373333    -0.23800
H1131       H  0.95677872  0.33882342  0.80427345     0.05400
H1132       H  0.90959552  0.37868656  0.78420281     0.08600
H1133       H  0.96896803  0.36510398  0.76599288     0.08600
H1134       H  0.04728154  0.56904937  0.76854006     0.08600
H1135       H  0.09257323  0.55876764  0.79673558     0.08600
H1136       H  0.03679875  0.59267719  0.80839047     0.05300
C1137       C  0.07386815  0.37288185  0.85776065    -0.20500
C1138       C  0.10251990  0.41859316  0.85968369    -0.07000
C1139       C  0.11884264  0.42542741  0.89189963     0.13800
C1140       C  0.08525442  0.41304477  0.91771954    -0.20500
C1141       C  0.03947109  0.38649118  0.91222239    -0.07000
C1142       C  0.04555783  0.35442529  0.88457052     0.13800
C1143       C  0.04241820  0.29678387  0.88789577    -0.23900
H1144       H  0.08117469  0.34684829  0.83794250     0.15100
H1145       H  0.09561348  0.42679416  0.94059146     0.15100
C1146       C  0.16753301  0.45168641  0.89846531    -0.23800
H1147       H  0.08077639  0.28040127  0.88850538     0.05400
H1148       H  0.02356616  0.27973683  0.86686033     0.08600
H1149       H  0.02424889  0.28510938  0.91065949     0.08600
H1150       H  0.16867717  0.49065320  0.88744174     0.08600
H1151       H  0.19836104  0.42807542  0.88811538     0.08600
H1152       H  0.17404723  0.45577857  0.92468713     0.05300
C1153       C  0.05629222  0.52864064  0.91237733    -0.20500
C1154       C  0.04424251  0.57989154  0.91002792    -0.07000
C1155       C  0.07435940  0.60329424  0.88504101     0.13800
C1156       C  0.09812711  0.56894167  0.86119243    -0.20500
C1157       C  0.08270851  0.51526660  0.86001062    -0.07000
C1158       C  0.04895575  0.50338700  0.88439078     0.13800
C1159       C  0.99927797  0.48290979  0.87722836    -0.23900
H1160       H  0.09324082  0.52302523  0.92238770     0.15100
H1161       H  0.12432491  0.58442143  0.84400563     0.15100
C1162       C  0.08351118  0.66038293  0.88479228    -0.23800
H1163       H  0.00012613  0.44254908  0.86958468     0.05400
H1164       H  0.97167947  0.48944343  0.89638208     0.08600
H1165       H  0.98749358  0.50517614  0.85717979     0.08600
H1166       H  0.10353599  0.67125731  0.90704333     0.08600
H1167       H  0.04790862  0.68232247  0.88394438     0.08600
H1168       H  0.10674398  0.67155166  0.86378240     0.05300
C1169       C  0.58293359  0.98482301  0.86740190    -0.20500
C1170       C  0.60501930  0.96451921  0.89416869    -0.07000
C1171       C  0.60062639  0.90804995  0.89241262     0.13800
C1172       C  0.56409159  0.88530501  0.87014301    -0.20500
C1173       C  0.52808733  0.91874518  0.85483155    -0.07000
C1174       C  0.53504497  0.97000492  0.86337379     0.13800
C1175       C  0.49407979  0.00230457  0.87533958    -0.23900
H1176       H  0.60644575  0.97795325  0.84651601     0.15100
H1177       H  0.56375001  0.84411425  0.86575749     0.15100
C1178       C  0.63923764  0.87253513  0.90651629    -0.23800
H1179       H  0.50671184  0.03770440  0.88740984     0.05400
H1180       H  0.46639916  0.01063378  0.85722137     0.08600
H1181       H  0.47527520  0.97782180  0.89173513     0.08600
H1182       H  0.66857090  0.89379172  0.91921565     0.08600
H1183       H  0.65778722  0.85073437  0.88676030     0.08600
H1184       H  0.62188848  0.84416864  0.92302517     0.05300
C1185       C  0.39173736  0.93830122  0.84667266    -0.20500
C1186       C  0.43498980  0.90814917  0.85219054    -0.07000
C1187       C  0.43417827  0.88402656  0.88304943     0.13800
C1188       C  0.40694960  0.90832557  0.90841478    -0.20500
C1189       C  0.38639877  0.95832000  0.90370188    -0.07000
C1190       C  0.36456889  0.96013000  0.87283080     0.13800
C1191       C  0.30893226  0.95401303  0.87132200    -0.23900
H1192       H  0.37312237  0.93385912  0.82392696     0.15100
H1193       H  0.40177120  0.88861368  0.93108049     0.15100
C1194       C  0.45910475  0.83288198  0.88917432    -0.23800
H1195       H  0.29404683  0.96837425  0.84809657     0.05400
H1196       H  0.28999427  0.97404889  0.89159376     0.08600
H1197       H  0.29980158  0.91233151  0.87329136     0.08600
H1198       H  0.43088840  0.80467882  0.89747585     0.08600
H1199       H  0.48763657  0.83701032  0.90811815     0.08600
H1200       H  0.47678000  0.81701739  0.86710954     0.05300
C1201       C  0.47679873  0.95639548  0.94799255    -0.20500
C1202       C  0.44997583  0.00349534  0.94464517    -0.07000
C1203       C  0.47714513  0.04514038  0.95855411     0.13800
C1204       C  0.52930737  0.04440205  0.95535838    -0.20500
C1205       C  0.55360149  0.00239776  0.94040617    -0.07000
C1206       C  0.52896400  0.95536748  0.94687931     0.13800
C1207       C  0.55490631  0.90750172  0.95889350    -0.23900
H1208       H  0.45870505  0.92167042  0.95524062     0.15100
H1209       H  0.55057702  0.07377125  0.96698337     0.15100
C1210       C  0.45534808  0.08351490  0.98209446    -0.23800
H1211       H  0.54197256  0.89862035  0.98364813     0.05400
H1212       H  0.59556417  0.91212732  0.96030020     0.08600
H1213       H  0.54553419  0.87413418  0.94349863     0.08600
H1214       H  0.41439110  0.08107656  0.98394625     0.08600
H1215       H  0.46650082  0.12345776  0.97570990     0.08600
H1216       H  0.47113353  0.07594844  0.00621108     0.05300
C1217       C  0.44993412  0.99138459  0.79868017    -0.20500
C1218       C  0.48834892  0.95579170  0.80545507    -0.07000
C1219       C  0.53630333  0.97492642  0.79661354     0.13800
C1220       C  0.54533320  0.02767936  0.80332654    -0.20500
C1221       C  0.50539412  0.06082545  0.81172090    -0.07000
C1222       C  0.46081559  0.04429033  0.79713690     0.13800
C1223       C  0.43441661  0.07734358  0.77293137    -0.23900
H1224       H  0.41320825  0.97911470  0.79295091     0.15100
H1225       H  0.58270978  0.04028270  0.80294653     0.15100
C1226       C  0.57873410  0.93993483  0.78654302    -0.23800
H1227       H  0.39946681  0.05934079  0.76450823     0.05400
H1228       H  0.46060612  0.08072185  0.75276479     0.08600
H1229       H  0.42579436  0.11691515  0.78128227     0.08600
H1230       H  0.56806041  0.91842305  0.76478933     0.08600
H1231       H  0.58859157  0.91172387  0.80549783     0.08600
H1232       H  0.61264544  0.96243715  0.78071921     0.05300
C1233       C  0.63597992  0.06958140  0.87534402    -0.20500
C1234       C  0.61338833  0.06338086  0.90625079    -0.07000
C1235       C  0.58442669  0.10805112  0.91299823     0.13800
C1236       C  0.55600638  0.13053696  0.88799158    -0.20500
C1237       C  0.55809337  0.11216329  0.85607245    -0.07000
C1238       C  0.60843185  0.09421622  0.84977041     0.13800
C1239       C  0.63828518  0.10971163  0.82060220    -0.23900
H1240       H  0.66953933  0.04795657  0.86947891     0.15100
H1241       H  0.54147144  0.16859085  0.89189108     0.15100
C1242       C  0.59903890  0.14338254  0.94008482    -0.23800
H1243       H  0.65628929  0.07545817  0.80925044     0.05400
H1244       H  0.66841238  0.13605831  0.82824847     0.08600
H1245       H  0.61606836  0.13056358  0.80263394     0.08600
H1246       H  0.62395624  0.12388579  0.95750979     0.08600
H1247       H  0.56533648  0.15806271  0.95283189     0.08600
H1248       H  0.61938846  0.17704252  0.93011675     0.05300
C1249       C  0.42718170  0.10619512  0.91169352    -0.20500
C1250       C  0.40013728  0.06103125  0.90410820    -0.07000
C1251       C  0.38082972  0.06674118  0.87268101     0.13800
C1252       C  0.41096936  0.08977504  0.84841770    -0.20500
C1253       C  0.45715706  0.11397928  0.85574200    -0.07000
C1254       C  0.45261054  0.13506221  0.88732053     0.13800
C1255       C  0.45352165  0.19289502  0.89142441    -0.23900
H1256       H  0.41862792  0.12505960  0.93400138     0.15100
H1257       H  0.39350014  0.09613167  0.82571828     0.15100
C1258       C  0.32553804  0.07279113  0.86868880    -0.23800
H1259       H  0.47168119  0.20325360  0.91445622     0.05400
H1260       H  0.47320740  0.21190978  0.87110062     0.08600
H1261       H  0.41471505  0.20805287  0.89203985     0.08600
H1262       H  0.30496486  0.05848464  0.89004625     0.08600
H1263       H  0.31313284  0.05338207  0.84642735     0.08600
H1264       H  0.31624339  0.11453954  0.86634374     0.05300
loop_ 
_geom_bond_atom_site_label_1 
_geom_bond_atom_site_label_2 
_geom_bond_distance 
_geom_bond_site_symmetry_2 
_ccdc_geom_bond_type 
C1           C54   1.537       .  S
C1          C589   1.592       .  S
C1          C605   1.642       .  S
C1          C621   1.655       .  S
C2          C114   1.531       .  S
C2          C557   1.633   1_545  S
C2          C570   1.605       .  S
C2          C618   1.628       .  S
C3           C70   1.524       .  S
C3          C538   1.611   1_545  S
C3          C573   1.567       .  S
C3          C602   1.634       .  S
C4           C10   1.518       .  S
C4          C541   1.589       .  S
C4          C554   1.589       .  S
C4          C586   1.590       .  S
C5           C36   1.530       .  S
C5          C490   1.555       .  S
C5          C506   1.631       .  S
C5          C525   1.580       .  S
C6           C96   1.525       .  S
C6          C458   1.643       .  S
C6          C477   1.594       .  S
C6          C509   1.644   1_655  S
C7           C88   1.533   1_655  S
C7          C445   1.609       .  S
C7          C474   1.597       .  S
C7          C522   1.598   1_655  S
C8           C28   1.535       .  S
C8          C442   1.641       .  S
C8          C461   1.620       .  S
C8          C493   1.600       .  S
In9          O11   2.232       .  S
In9          O12   2.253       .  S
In9          O20   2.258       .  S
In9          O14   2.256       .  S
In9          O16   2.231       .  S
In9          O17   2.248       .  S
In9          O18   2.313       .  S
In9          O21   2.323       .  S
C10          O16   1.263       .  A
C10          O18   1.260       .  A
O11          C19   1.257       .  A
O12          C19   1.261       .  A
C13          O20   1.259       .  A
C13          O14   1.261       .  A
C13         C410   1.495       .  S
C15          C62   1.530       .  S
C15          O17   1.258       .  A
C15          O21   1.261       .  A
C19         C426   1.486       .  S
In22         O24   2.219       .  S
In22         O25   2.245       .  S
In22         O33   2.241       .  S
In22         O27   2.242       .  S
In22         O29   2.292       .  S
In22         O30   2.295       .  S
In22         O31   2.276       .  S
In22         O34   2.288       .  S
C23          C66   1.532       .  S
C23          O29   1.260       .  A
C23          O31   1.261       .  A
O24          C32   1.260       .  A
O25          C32   1.262       .  A
C26          O33   1.260       .  A
C26          O27   1.259       .  A
C26         C394   1.484       .  S
C28          O30   1.261       .  A
C28          O34   1.260       .  A
C32         C429   1.482       .  S
In35         O37   2.244       .  S
In35         O38   2.259       .  S
In35         O46   2.232       .  S
In35         O40   2.234       .  S
In35         O42   2.259       .  S
In35         O43   2.293       .  S
In35         O44   2.313       .  S
In35         O47   2.315       .  S
C36          O42   1.262       .  A
C36          O44   1.259       .  A
O37          C45   1.259       .  A
O38          C45   1.263       .  A
C39          O46   1.260       .  A
C39          O40   1.260       .  A
C39         C381   1.480       .  S
C41          C68   1.539       .  S
C41          O43   1.263       .  A
C41          O47   1.260       .  A
C45         C413   1.493       .  S
In48         O50   2.241       .  S
In48         O51   2.239       .  S
In48         O59   2.229       .  S
In48         O53   2.228       .  S
In48         O55   2.255       .  S
In48         O56   2.252       .  S
In48         O57   2.321       .  S
In48         O60   2.324       .  S
C49          C64   1.537       .  S
C49          O55   1.257       .  A
C49          O57   1.257       .  A
O50          C58   1.259       .  A
O51          C58   1.261       .  A
C52          O59   1.259       .  A
C52          O53   1.259       .  A
C52         C378   1.470       .  S
C54          O56   1.263       .  A
C54          O60   1.259       .  A
C58         C397   1.487       .  S
C61         C109   1.530       .  S
C61         C333   1.563       .  S
C61         C349   1.641       .  S
C61         C365   1.641   1_545  S
C62         C301   1.600       .  S
C62         C314   1.655       .  S
C62         C362   1.651       .  S
C63          C75   1.528       .  S
C63         C282   1.644   1_565  S
C63         C317   1.616       .  S
C63         C330   1.546       .  S
C64         C285   1.659       .  S
C64         C298   1.612       .  S
C64         C346   1.656       .  S
C65         C101   1.545       .  S
C65         C234   1.574   1_655  S
C65         C250   1.607   1_655  S
C65         C266   1.630       .  S
C66         C202   1.598       .  S
C66         C218   1.649       .  S
C66         C269   1.632       .  S
C67          C83   1.532       .  S
C67         C186   1.637       .  S
C67         C221   1.639   1_455  S
C67         C237   1.597       .  S
C68         C189   1.597       .  S
C68         C205   1.595       .  S
C68         C253   1.594       .  S
In69         O72   2.262       .  S
In69         O80   2.252   1_564  S
In69         O77   2.304       .  S
In69         O81   2.246   1_565  S
In69        O703   2.207   1_554  S
In69        O706   2.255   1_565  S
In69        O708   2.233   1_564  S
In69        O710   2.319   1_554  S
C70          O76   1.261       .  A
C70          O78   1.255   1_545  A
O71        In701   2.231   1_565  S
O71         C711   1.258       .  A
O72          C79   1.266   1_554  A
C73          O80   1.258   1_554  A
C73         O706   1.257       .  A
C73         C154   1.490       .  S
O74        In701   2.234       .  S
O74         C705   1.260       .  A
C75          O77   1.260       .  A
C75          O81   1.257   1_565  A
O76        In701   2.239       .  S
O78        In701   2.302   1_565  S
C79         O703   1.261       .  A
C79         C170   1.483       .  S
In82         O84   2.239   1_455  S
In82         O87   2.243   1_556  S
In82         O89   2.272   1_556  S
In82         O91   2.296   1_456  S
In82        O717   2.246   1_456  S
In82        O725   2.251       .  S
In82        O722   2.276   1_455  S
In82        O726   2.299       .  S
C83          O89   1.265       .  A
C83          O91   1.256   1_455  A
O84          C92   1.261       .  A
O85        In714   2.249   1_655  S
O85         C724   1.260       .  A
C86          O87   1.259       .  A
C86         O725   1.260   1_554  A
C86         C138   1.489       .  S
C88          O90   1.259   1_455  A
C88          O94   1.262       .  A
O90        In714   2.287   1_655  S
C92         O717   1.260   1_556  A
C92         C173   1.485       .  S
O93        In714   2.245       .  S
O93         C718   1.260       .  A
O94        In714   2.303       .  S
In95         O98   2.257       .  S
In95        O106   2.245   1_654  S
In95        O103   2.306       .  S
In95        O107   2.283   1_655  S
In95        O729   2.244       .  S
In95        O732   2.245   1_655  S
In95        O734   2.287   1_654  S
In95        O736   2.276   1_554  S
C96         O102   1.262   1_655  A
C96         O104   1.263       .  A
O97        In727   2.256       .  S
O97         C105   1.258       .  A
O98         C737   1.262       .  A
C99         O106   1.261   1_554  A
C99         O732   1.259       .  A
C99         C125   1.488       .  S
O100       In727   2.264   1_455  S
O100        C731   1.260       .  A
C101        O103   1.263       .  A
C101        O107   1.260   1_655  A
O102       In727   2.285   1_455  S
O104       In727   2.263       .  S
C105        O730   1.262       .  A
C105        C789   1.489       .  S
In108       O110   2.247   1_544  S
In108       O113   2.255       .  S
In108       O115   2.236       .  S
In108       O117   2.327   1_545  S
In108       O743   2.244   1_545  S
In108       O751   2.242   1_554  S
In108       O748   2.260   1_544  S
In108       O752   2.320   1_554  S
C109        O115   1.259       .  A
C109        O117   1.260   1_545  A
O110        C118   1.262   1_556  A
O111       In740   2.248   1_565  S
O111        C750   1.260       .  A
C112        O113   1.261       .  A
C112        O751   1.258   1_554  A
C112        C122   1.490       .  S
C114        O116   1.261   1_545  A
C114        O120   1.262       .  A
O116       In740   2.260   1_565  S
C118        O743   1.259       .  A
C118        C141   1.486       .  S
O119       In740   2.242       .  S
O119        C744   1.257       .  A
O120       In740   2.320       .  S
C121        C122   1.406       .  A
C121        C126   1.405       .  A
C121        H128   1.084       .  S
C122        C755   1.419   1_554  A
C123        C130   1.509       .  S
C123        C754   1.419       .  A
C123        C756   1.402       .  A
C124        C125   1.405   1_556  A
C124        C755   1.404       .  A
C124        H761   1.084       .  S
C125        C126   1.418       .  A
C126        C127   1.509       .  S
C127        H131   1.111       .  S
C127        H132   1.110       .  S
C127        H133   1.110       .  S
H129        C756   1.084       .  S
C130        H135   1.111       .  S
C130        H136   1.111       .  S
C130        H766   1.110       .  S
H134        C762   1.110       .  S
C137        C138   1.407       .  A
C137        C142   1.404       .  A
C137        H144   1.084       .  S
C138        C771   1.418   1_554  A
C139        C146   1.508       .  S
C139        C140   1.403       .  A
C139        C770   1.418       .  A
C140        C773   1.403       .  A
C140        H145   1.084       .  S
C141        C142   1.417       .  A
C141        C772   1.404   1_554  A
C142        C143   1.509       .  S
C143        H147   1.111       .  S
C143        H148   1.110       .  S
C143        H149   1.111       .  S
C146        H150   1.110       .  S
C146        H151   1.110       .  S
C146        H152   1.111       .  S
C153        C154   1.405   1_556  A
C153        C790   1.405       .  A
C153        H792   1.084       .  S
C154        C155   1.419       .  A
C155        C162   1.508       .  S
C155        C156   1.406       .  A
C156        C157   1.404       .  A
C156        H161   1.084       .  S
C157        C737   1.488       .  S
C157        C790   1.418   1_554  A
C158        C159   1.509       .  S
C158        C785   1.408       .  A
C158        C789   1.419       .  A
C159        H163   1.111       .  S
C159        H165   1.110       .  S
C159        H796   1.110       .  S
H160        C785   1.084       .  S
C162        H166   1.110       .  S
C162        H167   1.110       .  S
C162        H168   1.111       .  S
H164        C791   1.111       .  S
C169        C170   1.403       .  A
C169        C174   1.399       .  A
C169        H176   1.084       .  S
C170        C171   1.415   1_556  A
C171        C810   1.507       .  S
C171        C172   1.408       .  A
C172        C173   1.408   1_554  A
C172        H177   1.084       .  S
C173        C174   1.415       .  A
C174        C175   1.508       .  S
C175        H179   1.111       .  S
C175        H181   1.109       .  S
C175        H812   1.111       .  S
C178        C803   1.508       .  S
C178        H182   1.110       .  S
C178        H184   1.111       .  S
C178        H815   1.110       .  S
H180        C807   1.111       .  S
H183        C810   1.110       .  S
C185        C186   1.415       .  A
C185        C190   1.429       .  A
C185        H192   1.080       .  S
C186        C187   1.434       .  A
C187        C194   1.506       .  S
C187        C188   1.427       .  A
C188        C189   1.416       .  A
C188        H193   1.082       .  S
C189        C190   1.417       .  A
C190        C191   1.507       .  S
C191        H195   1.111       .  S
C191        H196   1.109       .  S
C191        H197   1.110       .  S
C194        H198   1.110       .  S
C194        H199   1.109       .  S
C194        H200   1.111       .  S
C201        C202   1.411       .  A
C201        C206   1.405   1_655  A
C201        H208   1.071       .  S
C202        C203   1.417       .  A
C203        C210   1.472       .  S
C203        C204   1.425   1_655  A
C204        C205   1.421       .  A
C204        H209   1.084       .  S
C205        C206   1.425       .  A
C206        C207   1.502       .  S
C207        H211   1.109       .  S
C207        H212   1.111       .  S
C207        H213   1.104       .  S
C210        H214   1.109       .  S
C210        H215   1.100       .  S
C210        H216   1.069       .  S
C217        C218   1.420       .  A
C217        C222   1.427       .  A
C217        H224   1.071       .  S
C218        C219   1.430       .  A
C219        C226   1.506       .  S
C219        C220   1.432       .  A
C220        C221   1.423       .  A
C220        H225   1.075       .  S
C221        C222   1.422       .  A
C222        C223   1.513       .  S
C223        H227   1.111       .  S
C223        H228   1.111       .  S
C223        H229   1.100       .  S
C226        H230   1.110       .  S
C226        H231   1.111       .  S
C226        H232   1.110       .  S
C233        C234   1.403   1_655  A
C233        C238   1.405       .  A
C233        H240   1.078       .  S
C234        C235   1.435       .  A
C235        C242   1.502       .  S
C235        C236   1.406       .  A
C236        C237   1.405       .  A
C236        H241   1.066       .  S
C237        C238   1.411   1_455  A
C238        C239   1.478       .  S
C239        H243   1.078       .  S
C239        H244   1.102       .  S
C239        H245   1.108       .  S
C242        H246   1.097       .  S
C242        H247   1.108       .  S
C242        H248   1.108       .  S
C249        C250   1.372       .  A
C249        C254   1.354       .  A
C249        H256   1.085       .  S
C250        C251   1.457       .  A
C251        C258   1.500       .  S
C251        C252   1.481       .  A
C252        C253   1.449       .  A
C252        H257   1.081       .  S
C253        C254   1.390       .  A
C254        C255   1.459       .  S
C255        H259   1.103   1_455  S
C255        H260   1.055       .  S
C255        H261   1.084       .  S
C258        H262   1.110       .  S
C258        H263   1.110       .  S
C258        H264   1.109       .  S
C265        C266   1.414       .  A
C265        C270   1.417       .  A
C265        H272   1.081       .  S
C266        C267   1.429       .  A
C267        C274   1.501       .  S
C267        C268   1.432       .  A
C268        C269   1.426       .  A
C268        H273   1.069       .  S
C269        C270   1.417       .  A
C270        C271   1.507       .  S
C271        H275   1.111       .  S
C271        H276   1.111       .  S
C271        H277   1.111       .  S
C274        H278   1.110       .  S
C274        H279   1.110       .  S
C274        H280   1.109       .  S
C281        C282   1.413       .  A
C281        C286   1.437       .  A
C281        H288   1.079       .  S
C282        C283   1.448       .  A
C283        C290   1.507       .  S
C283        C284   1.440       .  A
C284        C285   1.422       .  A
C284        H289   1.067       .  S
C285        C286   1.439       .  A
C286        C287   1.512       .  S
C287        H291   1.111       .  S
C287        H292   1.096       .  S
C287        H293   1.111       .  S
C290        H294   1.105       .  S
C290        H295   1.110       .  S
C290        H296   1.110       .  S
C297        C298   1.417       .  A
C297        C302   1.404   1_545  A
C297        H304   1.062       .  S
C298        C299   1.432       .  A
C299        C306   1.498       .  S
C299        C300   1.417   1_545  A
C300        C301   1.411       .  A
C300        H305   1.066       .  S
C301        C302   1.416       .  A
C302        C303   1.504       .  S
C303        H307   1.107       .  S
C303        H308   1.087       .  S
C303        H309   1.108       .  S
C306        H310   1.098       .  S
C306        H311   1.099       .  S
C306        H312   1.108       .  S
C313        C314   1.416       .  A
C313        C318   1.436       .  A
C313        H320   1.072       .  S
C314        C315   1.433       .  A
C315        C322   1.507       .  S
C315        C316   1.429       .  A
C316        C317   1.415       .  A
C316        H321   1.075       .  S
C317        C318   1.436       .  A
C318        C319   1.504       .  S
C319        H323   1.110       .  S
C319        H324   1.110       .  S
C319        H325   1.101       .  S
C322        H326   1.105       .  S
C322        H327   1.111       .  S
C322        H328   1.110       .  S
C329        C330   1.435       .  A
C329        C334   1.455       .  A
C329        H336   1.081       .  S
C330        C331   1.360   1_565  A
C331        C338   1.437   1_545  S
C331        C332   1.314       .  A
C332        C333   1.359       .  A
C332        H337   1.032       .  S
C333        C334   1.448   1_545  A
C334        C335   1.491       .  S
C335        H339   1.100       .  S
C335        H340   1.093       .  S
C335        H341   1.103       .  S
C338        H342   1.083   1_565  S
C338        H343   1.048       .  S
C338        H344   1.099   1_565  S
C345        C346   1.425       .  A
C345        C350   1.455       .  A
C345        H352   1.079       .  S
C346        C347   1.420       .  A
C347        C354   1.510       .  S
C347        C348   1.419       .  A
C348        C349   1.410       .  A
C348        H353   1.069       .  S
C349        C350   1.464       .  A
C350        C351   1.501       .  S
C351        H355   1.110       .  S
C351        H356   1.110       .  S
C351        H357   1.105       .  S
C354        H358   1.106       .  S
C354        H359   1.109       .  S
C354        H360   1.111       .  S
C361        C362   1.420       .  A
C361        C366   1.445       .  A
C361        H368   1.078       .  S
C362        C363   1.413       .  A
C363        C370   1.506       .  S
C363        C364   1.420       .  A
C364        C365   1.436       .  A
C364        H369   1.062       .  S
C365        C366   1.430       .  A
C366        C367   1.502       .  S
C367        H371   1.109       .  S
C367        H372   1.110       .  S
C367        H373   1.110       .  S
C370        H374   1.111       .  S
C370        H375   1.110       .  S
C370        H376   1.111       .  S
C377        C378   1.401       .  A
C377        C382   1.400       .  A
C377        H384   1.084       .  S
C378        C379   1.412       .  A
C379        C386   1.509       .  S
C379        C380   1.401       .  A
C380        C381   1.406       .  A
C380        H385   1.084       .  S
C381        C382   1.418       .  A
C382        C383   1.508       .  S
C383        H387   1.111       .  S
C383        H388   1.110       .  S
C383        H389   1.110       .  S
C386        H390   1.109       .  S
C386        H391   1.111       .  S
C386        H392   1.111       .  S
C393        C394   1.405       .  A
C393        C398   1.403       .  A
C393        H400   1.084       .  S
C394        C395   1.416       .  A
C395        C402   1.509       .  S
C395        C396   1.402       .  A
C396        C397   1.405       .  A
C396        H401   1.084       .  S
C397        C398   1.418       .  A
C398        C399   1.508       .  S
C399        H403   1.111       .  S
C399        H404   1.110       .  S
C399        H405   1.110       .  S
C402        H406   1.111       .  S
C402        H407   1.110       .  S
C402        H408   1.111       .  S
C409        C410   1.406       .  A
C409        C414   1.406       .  A
C409        H416   1.084       .  S
C410        C411   1.420       .  A
C411        C418   1.508       .  S
C411        C412   1.408       .  A
C412        C413   1.406       .  A
C412        H417   1.084       .  S
C413        C414   1.419       .  A
C414        C415   1.509       .  S
C415        H419   1.111       .  S
C415        H420   1.111       .  S
C415        H421   1.110       .  S
C418        H422   1.110       .  S
C418        H423   1.110       .  S
C418        H424   1.111       .  S
C425        C426   1.407       .  A
C425        C430   1.405       .  A
C425        H432   1.084       .  S
C426        C427   1.418       .  A
C427        C434   1.510       .  S
C427        C428   1.399       .  A
C428        C429   1.404       .  A
C428        H433   1.084       .  S
C429        C430   1.415       .  A
C430        C431   1.508       .  S
C431        H435   1.111       .  S
C431        H436   1.111       .  S
C431        H437   1.110       .  S
C434        H438   1.110       .  S
C434        H439   1.110       .  S
C434        H440   1.111       .  S
C441        C442   1.416       .  A
C441        C446   1.432       .  A
C441        H448   1.073       .  S
C442        C443   1.433       .  A
C443        C450   1.509       .  S
C443        C444   1.421       .  A
C444        C445   1.418       .  A
C444        H449   1.074       .  S
C445        C446   1.418       .  A
C446        C447   1.507       .  S
C447        H451   1.110       .  S
C447        H452   1.110       .  S
C447        H453   1.106       .  S
C450        H454   1.107       .  S
C450        H455   1.108       .  S
C450        H456   1.111       .  S
C457        C458   1.433       .  A
C457        C462   1.427       .  A
C457        H464   1.079       .  S
C458        C459   1.410       .  A
C459        C466   1.507       .  S
C459        C460   1.432       .  A
C460        C461   1.416       .  A
C460        H465   1.077       .  S
C461        C462   1.414       .  A
C462        C463   1.503       .  S
C463        H467   1.109       .  S
C463        H468   1.111       .  S
C463        H469   1.111       .  S
C466        H470   1.111       .  S
C466        H471   1.107       .  S
C466        H472   1.109       .  S
C473        C474   1.431   1_455  A
C473        C478   1.429       .  A
C473        H480   1.084       .  S
C474        C475   1.426       .  A
C475        C482   1.509       .  S
C475        C476   1.396       .  A
C476        C477   1.399       .  A
C476        H481   1.078       .  S
C477        C478   1.421   1_655  A
C478        C479   1.486       .  S
C479        H483   1.111       .  S
C479        H484   1.105       .  S
C479        H485   1.087       .  S
C482        H486   1.110       .  S
C482        H487   1.107       .  S
C482        H488   1.106       .  S
C489        C490   1.395       .  A
C489        C494   1.396   1_455  A
C489        H496   1.076       .  S
C490        C491   1.424       .  A
C491        C498   1.494       .  S
C491        C492   1.403   1_455  A
C492        C493   1.399       .  A
C492        H497   1.071       .  S
C493        C494   1.443       .  A
C494        C495   1.518       .  S
C495        H499   1.110       .  S
C495        H500   1.109       .  S
C495        H501   1.110       .  S
C498        H502   1.084       .  S
C498        H503   1.090       .  S
C498        H504   1.107       .  S
C505        C506   1.418       .  A
C505        C510   1.430       .  A
C505        H512   1.081       .  S
C506        C507   1.424       .  A
C507        C514   1.506       .  S
C507        C508   1.437       .  A
C508        C509   1.433       .  A
C508        H513   1.054       .  S
C509        C510   1.427       .  A
C510        C511   1.499       .  S
C511        H515   1.111       .  S
C511        H516   1.106       .  S
C511        H517   1.105       .  S
C514        H518   1.108       .  S
C514        H519   1.110       .  S
C514        H520   1.110       .  S
C521        C522   1.366       .  A
C521        C526   1.352       .  A
C521        H528   1.086       .  S
C522        C523   1.450       .  A
C523        C530   1.500       .  S
C523        C524   1.473       .  A
C524        C525   1.453       .  A
C524        H529   1.080       .  S
C525        C526   1.392       .  A
C526        C527   1.473       .  S
C527        H531   1.092       .  S
C527        H532   1.097   1_455  S
C527        H533   1.062   1_455  S
C530        H534   1.110       .  S
C530        H535   1.108       .  S
C530        H536   1.110       .  S
C537        C538   1.363       .  A
C537        C542   1.357       .  A
C537        H544   1.084       .  S
C538        C539   1.469       .  A
C539        C546   1.501       .  S
C539        C540   1.480       .  A
C540        C541   1.442       .  A
C540        H545   1.082       .  S
C541        C542   1.389       .  A
C542        C543   1.459   1_565  S
C543        H547   1.102       .  S
C543        H548   1.078       .  S
C543        H549   1.058   1_545  S
C546        H550   1.102       .  S
C546        H551   1.110       .  S
C546        H552   1.108       .  S
C553        C554   1.414       .  A
C553        C558   1.422       .  A
C553        H560   1.078       .  S
C554        C555   1.427       .  A
C555        C562   1.500       .  S
C555        C556   1.425       .  A
C556        C557   1.415       .  A
C556        H561   1.081       .  S
C557        C558   1.414       .  A
C558        C559   1.507       .  S
C559        H563   1.110       .  S
C559        H564   1.109       .  S
C559        H565   1.111       .  S
C562        H566   1.110       .  S
C562        H567   1.107       .  S
C562        H568   1.108       .  S
C569        C570   1.420   1_565  A
C569        C574   1.402       .  A
C569        H576   1.067       .  S
C570        C571   1.433       .  A
C571        C578   1.508       .  S
C571        C572   1.406       .  A
C572        C573   1.405       .  A
C572        H577   1.071       .  S
C573        C574   1.413   1_545  A
C574        C575   1.503       .  S
C575        H579   1.109       .  S
C575        H580   1.103       .  S
C575        H581   1.107       .  S
C578        H582   1.103       .  S
C578        H583   1.110       .  S
C578        H584   1.108       .  S
C585        C586   1.404       .  A
C585        C590   1.405   1_565  A
C585        H592   1.063       .  S
C586        C587   1.429       .  A
C587        C594   1.508       .  S
C587        C588   1.419   1_565  A
C588        C589   1.412       .  A
C588        H593   1.060       .  S
C589        C590   1.413       .  A
C590        C591   1.495       .  S
C591        H595   1.108       .  S
C591        H596   1.094       .  S
C591        H597   1.102       .  S
C594        H598   1.104       .  S
C594        H599   1.105       .  S
C594        H600   1.111       .  S
C601        C602   1.427       .  A
C601        C606   1.442       .  A
C601        H608   1.083       .  S
C602        C603   1.414       .  A
C603        C610   1.507       .  S
C603        C604   1.415       .  A
C604        C605   1.413       .  A
C604        H609   1.068       .  S
C605        C606   1.447       .  A
C606        C607   1.505       .  S
C607        H611   1.110       .  S
C607        H612   1.111       .  S
C607        H613   1.097       .  S
C610        H614   1.109       .  S
C610        H615   1.111       .  S
C610        H616   1.111       .  S
C617        C618   1.417       .  A
C617        C622   1.432       .  A
C617        H624   1.071       .  S
C618        C619   1.417       .  A
C619        C626   1.502       .  S
C619        C620   1.422       .  A
C620        C621   1.429       .  A
C620        H625   1.067       .  S
C621        C622   1.426       .  A
C622        C623   1.506       .  S
C623        H627   1.111       .  S
C623        H628   1.111       .  S
C623        H629   1.111       .  S
C626        H630   1.108       .  S
C626        H631   1.108       .  S
C626        H632   1.111       .  S
C633        C686   1.536       .  S
C633       C1221   1.590       .  S
C633       C1237   1.642       .  S
C633       C1253   1.654       .  S
C634        C746   1.531       .  S
C634       C1189   1.630   1_545  S
C634       C1202   1.602       .  S
C634       C1250   1.630       .  S
C635        C702   1.528       .  S
C635       C1170   1.612   1_545  S
C635       C1205   1.567       .  S
C635       C1234   1.638       .  S
C636        C642   1.519       .  S
C636       C1173   1.587       .  S
C636       C1186   1.589       .  S
C636       C1218   1.590       .  S
C637        C668   1.530       .  S
C637       C1122   1.557       .  S
C637       C1138   1.627       .  S
C637       C1157   1.581       .  S
C638        C728   1.527       .  S
C638       C1090   1.646       .  S
C638       C1109   1.593       .  S
C638       C1141   1.645   1_655  S
C639        C720   1.529       .  S
C639       C1077   1.607       .  S
C639       C1106   1.596       .  S
C639       C1154   1.595   1_655  S
C640        C660   1.537       .  S
C640       C1074   1.639       .  S
C640       C1093   1.624       .  S
C640       C1125   1.604       .  S
In641       O643   2.233       .  S
In641       O644   2.257       .  S
In641       O652   2.260       .  S
In641       O646   2.249       .  S
In641       O648   2.245       .  S
In641       O649   2.255       .  S
In641       O650   2.311       .  S
In641       O653   2.334       .  S
C642        O648   1.262       .  A
C642        O650   1.259       .  A
O643        C651   1.259       .  A
O644        C651   1.262       .  A
C645        O652   1.259       .  A
C645        O646   1.261       .  A
C645       C1042   1.493       .  S
C647        C694   1.534       .  S
C647        O649   1.258       .  A
C647        O653   1.261       .  A
C651       C1058   1.485       .  S
In654       O656   2.233       .  S
In654       O657   2.251       .  S
In654       O665   2.237       .  S
In654       O659   2.242       .  S
In654       O661   2.302       .  S
In654       O662   2.293       .  S
In654       O663   2.282       .  S
In654       O666   2.295       .  S
C655        C698   1.538       .  S
C655        O661   1.260       .  A
C655        O663   1.262       .  A
O656        C664   1.261       .  A
O657        C664   1.261       .  A
C658        O665   1.261       .  A
C658        O659   1.259       .  A
C658       C1026   1.484       .  S
C660        O662   1.261       .  A
C660        O666   1.259       .  A
C664       C1061   1.488       .  S
In667       O669   2.235       .  S
In667       O670   2.266       .  S
In667       O678   2.249       .  S
In667       O672   2.231       .  S
In667       O674   2.258       .  S
In667       O675   2.281       .  S
In667       O676   2.303       .  S
In667       O679   2.304       .  S
C668        O674   1.263       .  A
C668        O676   1.261       .  A
O669        C677   1.258       .  A
O670        C677   1.263       .  A
C671        O678   1.261       .  A
C671        O672   1.260       .  A
C671       C1013   1.485       .  S
C673        C700   1.535       .  S
C673        O675   1.262       .  A
C673        O679   1.261       .  A
C677       C1045   1.494       .  S
In680       O682   2.224       .  S
In680       O683   2.251       .  S
In680       O691   2.223       .  S
In680       O685   2.246       .  S
In680       O687   2.253       .  S
In680       O688   2.251       .  S
In680       O689   2.322       .  S
In680       O692   2.328       .  S
C681        C696   1.536       .  S
C681        O687   1.258       .  A
C681        O689   1.256       .  A
O682        C690   1.258       .  A
O683        C690   1.263       .  A
C684        O691   1.259       .  A
C684        O685   1.263       .  A
C684       C1010   1.483       .  S
C686        O688   1.262       .  A
C686        O692   1.257       .  A
C690       C1029   1.482       .  S
C693        C741   1.529       .  S
C693        C965   1.564       .  S
C693        C981   1.638       .  S
C693        C997   1.639   1_545  S
C694        C933   1.599       .  S
C694        C946   1.656       .  S
C694        C994   1.652       .  S
C695        C707   1.537       .  S
C695        C914   1.645   1_565  S
C695        C949   1.620       .  S
C695        C962   1.549       .  S
C696        C917   1.660       .  S
C696        C930   1.611       .  S
C696        C978   1.652       .  S
C697        C733   1.539       .  S
C697        C866   1.573   1_655  S
C697        C882   1.600   1_655  S
C697        C898   1.633       .  S
C698        C834   1.598       .  S
C698        C850   1.652       .  S
C698        C901   1.634       .  S
C699        C715   1.538       .  S
C699        C818   1.634       .  S
C699        C853   1.644   1_455  S
C699        C869   1.594       .  S
C700        C821   1.594       .  S
C700        C837   1.598       .  S
C700        C885   1.591       .  S
In701       O704   2.258   1_545  S
In701       O712   2.262       .  S
In701       O709   2.296   1_545  S
In701       O713   2.274       .  S
C702        O708   1.258       .  A
C702        O710   1.257   1_545  A
O704        C711   1.261       .  A
C705        O712   1.264       .  A
C705        C786   1.492       .  S
C707        O709   1.261       .  A
C707        O713   1.258   1_565  A
C711        C802   1.487       .  S
In714       O716   2.241   1_455  S
In714       O719   2.244       .  S
In714       O721   2.261       .  S
In714       O723   2.312   1_455  S
C715        O721   1.267       .  A
C715        O723   1.259   1_455  A
O716        C724   1.259       .  A
C718        O719   1.260       .  A
C718        C770   1.487       .  S
C720        O722   1.259       .  A
C720        O726   1.263   1_655  A
C724        C805   1.485       .  S
In727       O730   2.245       .  S
In727       O738   2.236   1_655  S
In727       O735   2.333       .  S
In727       O739   2.234   1_655  S
C728        O734   1.260   1_655  A
C728        O736   1.262       .  A
O729        C737   1.259       .  A
C731        O738   1.260       .  A
C731        C757   1.489       .  S
C733        O735   1.259       .  A
C733        O739   1.259   1_655  A
In740       O742   2.238   1_545  S
In740       O745   2.277       .  S
In740       O747   2.239       .  S
In740       O749   2.318   1_545  S
C741        O747   1.261       .  A
C741        O749   1.260   1_545  A
O742        C750   1.259       .  A
C744        O745   1.260       .  A
C744        C754   1.495       .  S
C746        O748   1.263   1_545  A
C746        O752   1.261       .  A
C750        C773   1.480       .  S
C753        C754   1.410       .  A
C753        C758   1.411       .  A
C753        H760   1.084       .  S
C755        C762   1.509       .  S
C756        C757   1.403       .  A
C757        C758   1.417       .  A
C758        C759   1.508       .  S
C759        H763   1.111       .  S
C759        H764   1.110       .  S
C759        H765   1.110       .  S
C762        H767   1.110       .  S
C762        H768   1.111       .  S
C769        C770   1.407       .  A
C769        C774   1.404       .  A
C769        H776   1.084       .  S
C771        C778   1.508       .  S
C771        C772   1.404       .  A
C772        H777   1.084       .  S
C773        C774   1.414       .  A
C774        C775   1.508       .  S
C775        H779   1.111       .  S
C775        H780   1.109       .  S
C775        H781   1.111       .  S
C778        H782   1.110       .  S
C778        H783   1.110       .  S
C778        H784   1.111       .  S
C785        C786   1.407       .  A
C786        C787   1.420       .  A
C787        C794   1.508       .  S
C787        C788   1.403       .  A
C788        C789   1.402       .  A
C788        H793   1.084       .  S
C790        C791   1.509       .  S
C791        H795   1.111       .  S
C791        H797   1.110       .  S
C794        H798   1.110       .  S
C794        H799   1.110       .  S
C794        H800   1.111       .  S
C801        C802   1.406       .  A
C801        C806   1.402       .  A
C801        H808   1.084       .  S
C802        C803   1.417       .  A
C803        C804   1.406       .  A
C804        C805   1.406       .  A
C804        H809   1.084       .  S
C805        C806   1.416       .  A
C806        C807   1.509       .  S
C807        H811   1.111       .  S
C807        H813   1.110       .  S
C810        H814   1.110       .  S
C810        H816   1.111       .  S
C817        C818   1.414       .  A
C817        C822   1.428       .  A
C817        H824   1.081       .  S
C818        C819   1.432       .  A
C819        C826   1.505       .  S
C819        C820   1.426       .  A
C820        C821   1.415       .  A
C820        H825   1.082       .  S
C821        C822   1.416       .  A
C822        C823   1.507       .  S
C823        H827   1.111       .  S
C823        H828   1.109       .  S
C823        H829   1.110       .  S
C826        H830   1.110       .  S
C826        H831   1.109       .  S
C826        H832   1.111       .  S
C833        C834   1.409       .  A
C833        C838   1.405   1_655  A
C833        H840   1.071       .  S
C834        C835   1.417       .  A
C835        C842   1.474       .  S
C835        C836   1.427   1_655  A
C836        C837   1.423       .  A
C836        H841   1.084       .  S
C837        C838   1.428       .  A
C838        C839   1.502       .  S
C839        H843   1.109       .  S
C839        H844   1.110       .  S
C839        H845   1.103       .  S
C842        H846   1.108       .  S
C842        H847   1.099       .  S
C842        H848   1.066       .  S
C849        C850   1.421       .  A
C849        C854   1.429       .  A
C849        H856   1.072       .  S
C850        C851   1.431       .  A
C851        C858   1.506       .  S
C851        C852   1.433       .  A
C852        C853   1.424       .  A
C852        H857   1.075       .  S
C853        C854   1.424       .  A
C854        C855   1.512       .  S
C855        H859   1.111       .  S
C855        H860   1.110       .  S
C855        H861   1.101       .  S
C858        H862   1.110       .  S
C858        H863   1.111       .  S
C858        H864   1.110       .  S
C865        C866   1.404   1_655  A
C865        C870   1.403       .  A
C865        H872   1.079       .  S
C866        C867   1.430       .  A
C867        C874   1.504       .  S
C867        C868   1.405       .  A
C868        C869   1.409       .  A
C868        H873   1.068       .  S
C869        C870   1.408   1_455  A
C870        C871   1.477       .  S
C871        H875   1.077       .  S
C871        H876   1.099       .  S
C871        H877   1.109       .  S
C874        H878   1.104       .  S
C874        H879   1.108       .  S
C874        H880   1.108       .  S
C881        C882   1.370       .  A
C881        C886   1.357       .  A
C881        H888   1.085       .  S
C882        C883   1.456       .  A
C883        C890   1.501       .  S
C883        C884   1.478       .  A
C884        C885   1.448       .  A
C884        H889   1.081       .  S
C885        C886   1.388       .  A
C886        C887   1.462       .  S
C887        H891   1.103   1_455  S
C887        H892   1.056       .  S
C887        H893   1.082   1_455  S
C890        H894   1.110       .  S
C890        H895   1.110       .  S
C890        H896   1.109       .  S
C897        C898   1.417       .  A
C897        C902   1.419       .  A
C897        H904   1.081       .  S
C898        C899   1.432       .  A
C899        C906   1.500       .  S
C899        C900   1.433       .  A
C900        C901   1.423       .  A
C900        H905   1.070       .  S
C901        C902   1.417       .  A
C902        C903   1.507       .  S
C903        H907   1.111       .  S
C903        H908   1.111       .  S
C903        H909   1.111       .  S
C906        H910   1.107       .  S
C906        H911   1.110       .  S
C906        H912   1.109       .  S
C913        C914   1.414       .  A
C913        C918   1.436       .  A
C913        H920   1.078       .  S
C914        C915   1.443       .  A
C915        C922   1.508       .  S
C915        C916   1.442       .  A
C916        C917   1.426       .  A
C916        H921   1.067       .  S
C917        C918   1.438       .  A
C918        C919   1.511       .  S
C919        H923   1.111       .  S
C919        H924   1.098       .  S
C919        H925   1.111       .  S
C922        H926   1.105       .  S
C922        H927   1.110       .  S
C922        H928   1.110       .  S
C929        C930   1.415       .  A
C929        C934   1.405   1_545  A
C929        H936   1.064       .  S
C930        C931   1.431       .  A
C931        C938   1.498       .  S
C931        C932   1.417   1_545  A
C932        C933   1.412       .  A
C932        H937   1.066       .  S
C933        C934   1.417       .  A
C934        C935   1.502       .  S
C935        H939   1.109       .  S
C935        H940   1.088       .  S
C935        H941   1.107       .  S
C938        H942   1.098       .  S
C938        H943   1.101       .  S
C938        H944   1.107       .  S
C945        C946   1.415       .  A
C945        C950   1.436       .  A
C945        H952   1.072       .  S
C946        C947   1.432       .  A
C947        C954   1.507       .  S
C947        C948   1.432       .  A
C948        C949   1.417       .  A
C948        H953   1.076       .  S
C949        C950   1.441       .  A
C950        C951   1.504       .  S
C951        H955   1.110       .  S
C951        H956   1.110       .  S
C951        H957   1.100       .  S
C954        H958   1.106       .  S
C954        H959   1.110       .  S
C954        H960   1.111       .  S
C961        C962   1.436       .  A
C961        C966   1.456       .  A
C961        H968   1.080       .  S
C962        C963   1.363   1_565  A
C963        C970   1.439   1_545  S
C963        C964   1.317       .  A
C964        C965   1.359       .  A
C964        H969   1.022       .  S
C965        C966   1.447   1_545  A
C966        C967   1.490       .  S
C967        H971   1.100       .  S
C967        H972   1.090       .  S
C967        H973   1.103       .  S
C970        H974   1.081   1_565  S
C970        H975   1.049       .  S
C970        H976   1.100   1_565  S
C977        C978   1.425       .  A
C977        C982   1.454       .  A
C977        H984   1.079       .  S
C978        C979   1.420       .  A
C979        C986   1.511       .  S
C979        C980   1.417       .  A
C980        C981   1.409       .  A
C980        H985   1.069       .  S
C981        C982   1.462       .  A
C982        C983   1.500       .  S
C983        H987   1.110       .  S
C983        H988   1.110       .  S
C983        H989   1.105       .  S
C986        H990   1.105       .  S
C986        H991   1.109       .  S
C986        H992   1.111       .  S
C993        C994   1.421       .  A
C993        C998   1.444       .  A
C993       H1000   1.077       .  S
C994        C995   1.415       .  A
C995       C1002   1.506       .  S
C995        C996   1.419       .  A
C996        C997   1.434       .  A
C996       H1001   1.062       .  S
C997        C998   1.430       .  A
C998        C999   1.502       .  S
C999       H1003   1.110       .  S
C999       H1004   1.110       .  S
C999       H1005   1.110       .  S
C1002      H1006   1.111       .  S
C1002      H1007   1.110       .  S
C1002      H1008   1.111       .  S
C1009      C1010   1.405       .  A
C1009      C1014   1.405       .  A
C1009      H1016   1.084       .  S
C1010      C1011   1.417       .  A
C1011      C1018   1.509       .  S
C1011      C1012   1.401       .  A
C1012      C1013   1.405       .  A
C1012      H1017   1.084       .  S
C1013      C1014   1.417       .  A
C1014      C1015   1.508       .  S
C1015      H1019   1.111       .  S
C1015      H1020   1.110       .  S
C1015      H1021   1.110       .  S
C1018      H1022   1.110       .  S
C1018      H1023   1.111       .  S
C1018      H1024   1.111       .  S
C1025      C1026   1.404       .  A
C1025      C1030   1.401       .  A
C1025      H1032   1.084       .  S
C1026      C1027   1.417       .  A
C1027      C1034   1.508       .  S
C1027      C1028   1.405       .  A
C1028      C1029   1.404       .  A
C1028      H1033   1.084       .  S
C1029      C1030   1.417       .  A
C1030      C1031   1.510       .  S
C1031      H1035   1.111       .  S
C1031      H1036   1.111       .  S
C1031      H1037   1.110       .  S
C1034      H1038   1.110       .  S
C1034      H1039   1.111       .  S
C1034      H1040   1.111       .  S
C1041      C1042   1.404       .  A
C1041      C1046   1.403       .  A
C1041      H1048   1.084       .  S
C1042      C1043   1.419       .  A
C1043      C1050   1.508       .  S
C1043      C1044   1.409       .  A
C1044      C1045   1.407       .  A
C1044      H1049   1.084       .  S
C1045      C1046   1.420       .  A
C1046      C1047   1.509       .  S
C1047      H1051   1.111       .  S
C1047      H1052   1.110       .  S
C1047      H1053   1.110       .  S
C1050      H1054   1.110       .  S
C1050      H1055   1.110       .  S
C1050      H1056   1.111       .  S
C1057      C1058   1.405       .  A
C1057      C1062   1.407       .  A
C1057      H1064   1.084       .  S
C1058      C1059   1.416       .  A
C1059      C1066   1.509       .  S
C1059      C1060   1.401       .  A
C1060      C1061   1.405       .  A
C1060      H1065   1.084       .  S
C1061      C1062   1.419       .  A
C1062      C1063   1.508       .  S
C1063      H1067   1.111       .  S
C1063      H1068   1.110       .  S
C1063      H1069   1.110       .  S
C1066      H1070   1.111       .  S
C1066      H1071   1.109       .  S
C1066      H1072   1.111       .  S
C1073      C1074   1.414       .  A
C1073      C1078   1.431       .  A
C1073      H1080   1.073       .  S
C1074      C1075   1.433       .  A
C1075      C1082   1.509       .  S
C1075      C1076   1.421       .  A
C1076      C1077   1.417       .  A
C1076      H1081   1.075       .  S
C1077      C1078   1.419       .  A
C1078      C1079   1.506       .  S
C1079      H1083   1.110       .  S
C1079      H1084   1.111       .  S
C1079      H1085   1.106       .  S
C1082      H1086   1.107       .  S
C1082      H1087   1.108       .  S
C1082      H1088   1.111       .  S
C1089      C1090   1.434       .  A
C1089      C1094   1.430       .  A
C1089      H1096   1.080       .  S
C1090      C1091   1.411       .  A
C1091      C1098   1.505       .  S
C1091      C1092   1.431       .  A
C1092      C1093   1.416       .  A
C1092      H1097   1.076       .  S
C1093      C1094   1.416       .  A
C1094      C1095   1.503       .  S
C1095      H1099   1.109       .  S
C1095      H1100   1.111       .  S
C1095      H1101   1.111       .  S
C1098      H1102   1.111       .  S
C1098      H1103   1.107       .  S
C1098      H1104   1.109       .  S
C1105      C1106   1.433   1_455  A
C1105      C1110   1.431       .  A
C1105      H1112   1.084       .  S
C1106      C1107   1.422       .  A
C1107      C1114   1.511       .  S
C1107      C1108   1.395       .  A
C1108      C1109   1.400       .  A
C1108      H1113   1.078       .  S
C1109      C1110   1.421   1_655  A
C1110      C1111   1.489       .  S
C1111      H1115   1.110       .  S
C1111      H1116   1.103       .  S
C1111      H1117   1.087   1_556  S
C1114      H1118   1.110       .  S
C1114      H1119   1.107       .  S
C1114      H1120   1.106       .  S
C1121      C1122   1.397       .  A
C1121      C1126   1.398   1_455  A
C1121      H1128   1.076       .  S
C1122      C1123   1.423       .  A
C1123      C1130   1.493       .  S
C1123      C1124   1.403   1_455  A
C1124      C1125   1.400       .  A
C1124      H1129   1.070       .  S
C1125      C1126   1.443       .  A
C1126      C1127   1.517       .  S
C1127      H1131   1.110       .  S
C1127      H1132   1.109       .  S
C1127      H1133   1.110       .  S
C1130      H1134   1.079       .  S
C1130      H1135   1.091       .  S
C1130      H1136   1.107       .  S
C1137      C1138   1.419       .  A
C1137      C1142   1.430       .  A
C1137      H1144   1.081       .  S
C1138      C1139   1.423       .  A
C1139      C1146   1.505       .  S
C1139      C1140   1.436       .  A
C1140      C1141   1.433       .  A
C1140      H1145   1.055       .  S
C1141      C1142   1.426       .  A
C1142      C1143   1.501       .  S
C1143      H1147   1.111       .  S
C1143      H1148   1.107       .  S
C1143      H1149   1.105       .  S
C1146      H1150   1.108       .  S
C1146      H1151   1.110       .  S
C1146      H1152   1.110       .  S
C1153      C1154   1.366       .  A
C1153      C1158   1.351       .  A
C1153      H1160   1.087       .  S
C1154      C1155   1.449       .  A
C1155      C1162   1.500       .  S
C1155      C1156   1.472       .  A
C1156      C1157   1.454       .  A
C1156      H1161   1.079       .  S
C1157      C1158   1.392       .  A
C1158      C1159   1.472   1_455  S
C1159      H1163   1.092   1_655  S
C1159      H1164   1.097       .  S
C1159      H1165   1.061       .  S
C1162      H1166   1.110       .  S
C1162      H1167   1.108       .  S
C1162      H1168   1.110       .  S
C1169      C1170   1.366       .  A
C1169      C1174   1.356       .  A
C1169      H1176   1.085       .  S
C1170      C1171   1.469       .  A
C1171      C1178   1.501       .  S
C1171      C1172   1.479       .  A
C1172      C1173   1.442       .  A
C1172      H1177   1.082       .  S
C1173      C1174   1.388       .  A
C1174      C1175   1.461   1_565  S
C1175      H1179   1.102       .  S
C1175      H1180   1.081       .  S
C1175      H1181   1.059   1_545  S
C1178      H1182   1.102       .  S
C1178      H1183   1.110       .  S
C1178      H1184   1.108       .  S
C1185      C1186   1.413       .  A
C1185      C1190   1.421       .  A
C1185      H1192   1.079       .  S
C1186      C1187   1.426       .  A
C1187      C1194   1.500       .  S
C1187      C1188   1.424       .  A
C1188      C1189   1.416       .  A
C1188      H1193   1.080       .  S
C1189      C1190   1.414       .  A
C1190      C1191   1.505       .  S
C1191      H1195   1.109       .  S
C1191      H1196   1.109       .  S
C1191      H1197   1.111       .  S
C1194      H1198   1.110       .  S
C1194      H1199   1.108       .  S
C1194      H1200   1.108       .  S
C1201      C1202   1.417   1_565  A
C1201      C1206   1.401       .  A
C1201      H1208   1.068       .  S
C1202      C1203   1.431       .  A
C1203      C1210   1.507       .  S
C1203      C1204   1.406       .  A
C1204      C1205   1.406       .  A
C1204      H1209   1.072       .  S
C1205      C1206   1.415   1_545  A
C1206      C1207   1.502       .  S
C1207      H1211   1.109       .  S
C1207      H1212   1.101       .  S
C1207      H1213   1.107       .  S
C1210      H1214   1.105       .  S
C1210      H1215   1.110       .  S
C1210      H1216   1.107   1_556  S
C1217      C1218   1.406       .  A
C1217      C1222   1.404   1_565  A
C1217      H1224   1.067       .  S
C1218      C1219   1.430       .  A
C1219      C1226   1.507       .  S
C1219      C1220   1.417   1_565  A
C1220      C1221   1.410       .  A
C1220      H1225   1.058       .  S
C1221      C1222   1.414       .  A
C1222      C1223   1.497       .  S
C1223      H1227   1.110       .  S
C1223      H1228   1.095       .  S
C1223      H1229   1.104       .  S
C1226      H1230   1.103       .  S
C1226      H1231   1.105       .  S
C1226      H1232   1.111       .  S
C1233      C1234   1.428       .  A
C1233      C1238   1.443       .  A
C1233      H1240   1.083       .  S
C1234      C1235   1.415       .  A
C1235      C1242   1.507       .  S
C1235      C1236   1.415       .  A
C1236      C1237   1.411       .  A
C1236      H1241   1.068       .  S
C1237      C1238   1.448       .  A
C1238      C1239   1.506       .  S
C1239      H1243   1.110       .  S
C1239      H1244   1.110       .  S
C1239      H1245   1.097       .  S
C1242      H1246   1.107       .  S
C1242      H1247   1.111       .  S
C1242      H1248   1.111       .  S
C1249      C1250   1.418       .  A
C1249      C1254   1.432       .  A
C1249      H1256   1.071       .  S
C1250      C1251   1.415       .  A
C1251      C1258   1.502       .  S
C1251      C1252   1.424       .  A
C1252      C1253   1.429       .  A
C1252      H1257   1.068       .  S
C1253      C1254   1.426       .  A
C1254      C1255   1.507       .  S
C1255      H1259   1.111       .  S
C1255      H1260   1.111       .  S
C1255      H1261   1.110       .  S
C1258      H1262   1.108       .  S
C1258      H1263   1.108       .  S
C1258      H1264   1.111       .  S
