geometry optimzed in LAMMPS
_audit_creation_date              2020-11-30 
_audit_creation_method            'lammps2cif' 
_symmetry_space_group_name_H-M    'P1' 
_symmetry_Int_Tables_number       1 
_symmetry_cell_setting            triclinic 
loop_ 
_symmetry_equiv_pos_as_xyz 
  x,y,z 
_cell_length_a                    29.73436765 
_cell_length_b                    28.748816318713498 
_cell_length_c                    28.378752950023628 
_cell_angle_alpha                 89.8079672010456 
_cell_angle_beta                  89.9587377522218 
_cell_angle_gamma                 90.02355134922395 
loop_ 
_atom_site_label 
_atom_site_type_symbol 
_atom_site_fract_x 
_atom_site_fract_y 
_atom_site_fract_z 
_atom_site_charge 
C1          C  0.32612882  0.35088438  0.15855443    -0.02700
C2          C  0.32741876  0.21271135  0.29875646    -0.02700
C3          C  0.20794966  0.21196686  0.15891204    -0.02700
C4          C  0.20705647  0.34981477  0.29915460    -0.02700
C5          C  0.32712459  0.20995166  0.65794371    -0.02700
C6          C  0.20951079  0.20873033  0.79928521    -0.02700
C7          C  0.20749316  0.34772256  0.65951483    -0.02700
C8          C  0.32856525  0.34759629  0.79777386    -0.02700
N9          N  0.43282216  0.47941486  0.03060293    -0.06300
N10         N  0.40072406  0.44910199  0.04019979    -0.58400
N11         N  0.46395785  0.58493523  0.06557807    -0.06000
N12         N  0.45367510  0.61483641  0.09922333    -0.60600
N13         N  0.43322931  0.58579939  0.03221040    -0.01600
N14         N  0.40155120  0.61630066  0.04240529    -0.58400
N15         N  0.46382466  0.47858592  0.06367967    -0.05300
N16         N  0.45339829  0.44772698  0.09650075    -0.60900
C17         C  0.41438506  0.42928030  0.08093063     0.95800
C18         C  0.41508533  0.63455127  0.08382306     0.95600
N19         N  0.60128131  0.58518431  0.03212448    -0.06500
N20         N  0.63235821  0.61649309  0.04152080    -0.59000
N21         N  0.57055371  0.47807613  0.06349219    -0.04600
N22         N  0.58017170  0.44609819  0.09550126    -0.60300
N23         N  0.60164102  0.47887190  0.03042836    -0.06500
N24         N  0.63296054  0.44750972  0.03922254    -0.59300
N25         N  0.57040401  0.58456722  0.06534325    -0.04300
N26         N  0.57991905  0.61546184  0.09820922    -0.60400
Mn27       Mn  0.51723701  0.53146686  0.06572737     1.18400
C28         C  0.61823544  0.63535967  0.08233776     0.97900
C29         C  0.61878086  0.42703541  0.07944307     0.98600
N30         N  0.43355913  0.58767307  0.92072593    -0.06600
N31         N  0.40232525  0.61914618  0.91218530    -0.62900
N32         N  0.46443155  0.48141389  0.88612530    -0.05400
N33         N  0.45486930  0.44991491  0.85378533    -0.63500
N34         N  0.43349797  0.48128456  0.91937383    -0.06100
N35         N  0.40244866  0.44975631  0.91049524    -0.63100
N36         N  0.46427381  0.58816696  0.88729594    -0.05000
N37         N  0.45440787  0.62007396  0.85522647    -0.63800
Mn38       Mn  0.43236343  0.53357840  0.97563374     1.10700
C39         C  0.41609294  0.63945904  0.87174963     0.99200
C40         C  0.41650001  0.43021078  0.86996310     0.99200
N41         N  0.60277531  0.48177403  0.91899368    -0.06100
N42         N  0.63534486  0.45231437  0.90876430    -0.61400
N43         N  0.57082160  0.58845954  0.88796032    -0.05400
N44         N  0.58047230  0.62073416  0.85625805    -0.58200
N45         N  0.60152068  0.58779138  0.92135707    -0.06700
N46         N  0.63256999  0.61955862  0.91317013    -0.61000
N47         N  0.57210043  0.48210038  0.88553488    -0.05700
N48         N  0.58336179  0.45275663  0.85171488    -0.58200
Mn49       Mn  0.60269177  0.53333723  0.97578289     1.20200
Mn50       Mn  0.51784385  0.53492101  0.88535835     1.10100
Cl51       Cl  0.51752250  0.53321214  0.97558731    -0.86200
C52         C  0.62266360  0.43440671  0.86699023     0.96200
C53         C  0.61862144  0.64016986  0.87298917     0.96000
C54         C  0.31667061  0.70421512  0.15453002    -0.02700
C55         C  0.20817786  0.83843508  0.15505637    -0.02700
C56         C  0.20903073  0.71056962  0.30059909    -0.02700
C57         C  0.31684960  0.84654731  0.30069366    -0.02700
N58         N  0.42916034  0.07818383  0.42357893    -0.06300
N59         N  0.39823552  0.10997544  0.41477357    -0.58400
N60         N  0.46059949  0.97235554  0.38824881    -0.06000
N61         N  0.45126884  0.94183785  0.35481863    -0.60600
N62         N  0.42938077  0.97139784  0.42114421    -0.05600
N63         N  0.39831329  0.94019886  0.41087056    -0.58400
N64         N  0.46051999  0.07906860  0.39086401    -0.05300
N65         N  0.45165376  0.11146627  0.35911843    -0.60900
C66         C  0.41309790  0.13070873  0.37491204     0.95800
C67         C  0.41268804  0.92165456  0.36984506     0.95600
N68         N  0.59774926  0.97353553  0.42422795    -0.06500
N69         N  0.62886834  0.94211615  0.41577794    -0.59000
N70         N  0.56643793  0.07997161  0.39212920    -0.04600
N71         N  0.57579606  0.11199941  0.36010161    -0.60300
N72         N  0.59720030  0.07979221  0.42548623    -0.06500
N73         N  0.62811064  0.11166641  0.41677649    -0.59300
N74         N  0.56721193  0.97360505  0.39068840    -0.04300
N75         N  0.57709136  0.94222905  0.35845552    -0.60400
Mn76       Mn  0.51374859  0.02619486  0.38920196     1.18400
C77         C  0.61516219  0.92263486  0.37519725     0.97900
C78         C  0.61391922  0.13177600  0.37637032     0.98600
N79         N  0.42899989  0.96895165  0.53276809    -0.06600
N80         N  0.39746390  0.93772827  0.54129893    -0.62900
N81         N  0.45964162  0.07478239  0.56821783    -0.05400
N82         N  0.45056383  0.10653456  0.60037749    -0.63500
N83         N  0.42895884  0.07536255  0.53477521    -0.06100
N84         N  0.39845592  0.10751165  0.54341069    -0.63100
N85         N  0.45964748  0.96819787  0.56626565    -0.05000
N86         N  0.44938140  0.93640391  0.59831310    -0.63800
Mn87       Mn  0.42806285  0.02344422  0.47810896     1.10700
C88         C  0.41096341  0.91730443  0.58177075     0.99200
C89         C  0.41271248  0.12686244  0.58397014     0.99200
N90         N  0.59737214  0.07676154  0.53704193    -0.06100
N91         N  0.62868480  0.10768649  0.54719119    -0.61400
N92         N  0.56668120  0.96890817  0.56752772    -0.05400
N93         N  0.57679721  0.93726722  0.59973937    -0.58200
N94         N  0.59798227  0.97043950  0.53474412    -0.06700
N95         N  0.62989101  0.93981235  0.54386447    -0.61000
N96         N  0.56639853  0.07554922  0.57018073    -0.05700
N97         N  0.57608073  0.10581766  0.60367798    -0.58200
Mn98       Mn  0.59853976  0.02526776  0.48029094     1.20200
Mn99       Mn  0.51299958  0.02176431  0.56936482     1.10100
Cl100      Cl  0.51331220  0.02416223  0.47929869    -0.86200
C101        C  0.61470830  0.12577879  0.58846444     0.96200
C102        C  0.61589146  0.91899082  0.58400551     0.96000
C103        C  0.69203413  0.33048666  0.80107074    -0.02700
C104        C  0.83068194  0.32668869  0.65468186    -0.02700
C105        C  0.69013837  0.21698693  0.66712994    -0.02700
C106        C  0.82924807  0.21726208  0.79454161    -0.02700
C107        C  0.31678459  0.71133267  0.80565136    -0.02700
C108        C  0.31281224  0.84635450  0.65193124    -0.02700
C109        C  0.20599425  0.70341114  0.67081843    -0.02700
C110        C  0.20865915  0.85288737  0.79268995    -0.02700
C111        C  0.70577490  0.84666326  0.30126404    -0.02700
C112        C  0.82586691  0.70966641  0.29767377    -0.02700
C113        C  0.70642127  0.71412888  0.15768278    -0.02700
C114        C  0.82449686  0.85269328  0.16234698    -0.02700
C115        C  0.71652195  0.71274898  0.80557501    -0.02700
C116        C  0.82428265  0.71793803  0.65871712    -0.02700
C117        C  0.71481976  0.84983074  0.65427362    -0.02700
C118        C  0.82222525  0.84708344  0.80077068    -0.02700
N119        N  0.06977839  0.08426662  0.06573010    -0.06300
N120        N  0.10026217  0.09445660  0.09788195    -0.58400
N121        N  0.96551489  0.11589080  0.03645426    -0.06000
N122        N  0.93501927  0.14756135  0.04706745    -0.60600
N123        N  0.96709986  0.08347057  0.06931766    -0.05600
N124        N  0.93759148  0.09241504  0.10293698    -0.58400
N125        N  0.06811406  0.11707405  0.03328453    -0.05300
N126        N  0.09752595  0.15019706  0.04264284    -0.60900
C127        C  0.11747302  0.13528691  0.08265037     0.95800
C128        C  0.91774258  0.13218755  0.08828974     0.95600
N129        N  0.96205248  0.08514594  0.89116340    -0.06500
N130        N  0.93104128  0.09488215  0.85924867    -0.59000
N131        N  0.06543550  0.11736457  0.92219496    -0.04600
N132        N  0.09650447  0.14894712  0.91321527    -0.60300
N133        N  0.06518009  0.08525464  0.88924168    -0.06500
N134        N  0.09605099  0.09435258  0.85703904    -0.59300
N135        N  0.96240501  0.11712920  0.92428185    -0.04300
N136        N  0.93170956  0.14926795  0.91548277    -0.60400
Mn137      Mn  0.01523519  0.11792264  0.97899867     1.18400
C138        C  0.91210526  0.13456873  0.87522305     0.97900
C139        C  0.11536222  0.13387269  0.87280651     0.98600
N140        N  0.96804945  0.97359963  0.06844370    -0.06600
N141        N  0.93808293  0.96474933  0.10156340    -0.62900
N142        N  0.06956292  0.94090341  0.03251884    -0.05400
N143        N  0.09941793  0.90796635  0.04136562    -0.63500
N144        N  0.07091383  0.97311141  0.06541314    -0.06100
N145        N  0.10174119  0.96255970  0.09732287    -0.63100
N146        N  0.96672851  0.94152090  0.03546851    -0.05000
N147        N  0.93581815  0.91004075  0.04553206    -0.63800
Mn148      Mn  0.01915923  0.02857459  0.06830943     1.10700
C149        C  0.91819699  0.92536140  0.08651334     0.99200
C150        C  0.11948969  0.92216661  0.08151848     0.99200
N151        N  0.06596455  0.97497908  0.88835907    -0.06100
N152        N  0.09678399  0.96664396  0.85587257    -0.61400
N153        N  0.96343996  0.94225174  0.92339454    -0.05400
N154        N  0.93236794  0.91060229  0.91444078    -0.58200
N155        N  0.96278424  0.97503588  0.89088131    -0.06700
N156        N  0.93133181  0.96646736  0.85926614    -0.61000
N157        N  0.06674413  0.94230720  0.92098227    -0.05700
N158        N  0.09808877  0.91115575  0.91141444    -0.58200
Mn159      Mn  0.01399152  0.03008081  0.88871939     1.20200
Mn160      Mn  0.01651473  0.94056707  0.97804001     1.10100
Cl161      Cl  0.01618212  0.02927369  0.97853685    -0.86200
C162        C  0.11668361  0.92703881  0.87099414     0.96200
C163        C  0.91246949  0.92654185  0.87470883     0.96000
C164        C  0.70186716  0.21133920  0.30011987    -0.02700
C165        C  0.82383398  0.20686099  0.16265605    -0.02700
C166        C  0.70530002  0.34579984  0.15604844    -0.02700
C167        C  0.82207285  0.34879723  0.29857458    -0.02700
N168        N  0.06907735  0.61404571  0.42713858    -0.06300
N169        N  0.10011232  0.64570976  0.41761785    -0.58400
N170        N  0.96588295  0.58376125  0.39234009    -0.06000
N171        N  0.93628236  0.59355613  0.35909480    -0.60600
N172        N  0.96591474  0.61630272  0.42489427    -0.05600
N173        N  0.93626230  0.64893563  0.41443008    -0.58400
N174        N  0.06891320  0.58162925  0.39443102    -0.05300
N175        N  0.09985540  0.59062773  0.36211849    -0.60900
C176        C  0.11930889  0.63037372  0.37732367     0.95800
C177        C  0.91795653  0.63399740  0.37362548     0.95600
N178        N  0.96144713  0.44123702  0.42592449    -0.06500
N179        N  0.93083660  0.40956297  0.41580414    -0.59000
N180        N  0.06576436  0.47135252  0.39531940    -0.04600
N181        N  0.09650022  0.46169863  0.36327863    -0.60300
N182        N  0.06426734  0.43853193  0.42776864    -0.06500
N183        N  0.09409150  0.40571261  0.41827280    -0.59300
N184        N  0.96306857  0.47338456  0.39279916    -0.04300
N185        N  0.93352663  0.46413146  0.35935542    -0.60400
Mn186      Mn  0.01590705  0.52753040  0.39273802     1.18400
C187        C  0.91355034  0.42459273  0.37454505     0.97900
C188        C  0.11406207  0.42104209  0.37824097     0.98600
N189        N  0.96320566  0.61666276  0.53708194    -0.06600
N190        N  0.93367724  0.64983162  0.54604313    -0.62900
N191        N  0.06428129  0.58141839  0.57267333    -0.05400
N192        N  0.09417415  0.58982809  0.60603600    -0.63500
N193        N  0.06624214  0.61378445  0.53974364    -0.06100
N194        N  0.09748128  0.64485239  0.55014567    -0.63100
N195        N  0.96139636  0.58420692  0.56993256    -0.05000
N196        N  0.93068877  0.59468090  0.60185349    -0.63800
Mn197      Mn  0.01616673  0.61630919  0.48221227     1.10700
C198        C  0.91347657  0.63534516  0.58617578     0.99200
C199        C  0.11481260  0.62915378  0.59127315     0.99200
N200        N  0.06139900  0.43901827  0.53944702    -0.06100
N201        N  0.09230311  0.40725479  0.54823229    -0.61400
N202        N  0.95799265  0.47324208  0.57052845    -0.05400
N203        N  0.92660072  0.46395021  0.60236422    -0.58200
N204        N  0.95822408  0.44104298  0.53760103    -0.06700
N205        N  0.92699622  0.40941871  0.54634451    -0.61000
N206        N  0.06146185  0.47117619  0.57236192    -0.05700
N207        N  0.09252663  0.46196220  0.60429813    -0.58200
Mn208      Mn  0.01129792  0.43887991  0.48278037     1.20200
Mn209      Mn  0.01116770  0.52748217  0.57253723     1.10100
Cl210      Cl  0.01359318  0.52758069  0.48257567    -0.86200
C211        C  0.11147333  0.42225682  0.58846929     0.96200
C212        C  0.90717298  0.42441230  0.58639924     0.96000
C213        C  0.85553008  0.37558368  0.32489895    -0.13500
C214        C  0.88179835  0.39842150  0.34738347    -0.15000
C215        C  0.78805425  0.38039656  0.17231671    -0.13600
C216        C  0.74063052  0.38255136  0.17881896     0.08600
C217        C  0.72911466  0.40572826  0.22160225    -0.13600
C218        C  0.75987569  0.40627110  0.26036913    -0.13600
C219        C  0.80111958  0.38149953  0.25784309     0.08600
C220        C  0.81774087  0.37934952  0.21121846    -0.13600
H221        H  0.80346172  0.37756005  0.13849483     0.12600
H222        H  0.69459315  0.41583473  0.22801134     0.12600
H223        H  0.75023120  0.42344103  0.29255076     0.12600
H224        H  0.85261330  0.37075419  0.20475974     0.12600
C225        C  0.74174643  0.22185614  0.12551633    -0.13600
C226        C  0.78910308  0.22898152  0.12451751     0.08600
C227        C  0.80061857  0.27139454  0.10108767    -0.13600
C228        C  0.76933504  0.30920168  0.09946899    -0.13600
C229        C  0.72746962  0.30606973  0.12341593     0.08600
C230        C  0.71149361  0.25979003  0.12546099    -0.13600
H231        H  0.72673503  0.18825482  0.12825477     0.12600
H232        H  0.83530041  0.27823722  0.09174232     0.12600
H233        H  0.77900429  0.34117009  0.08223503     0.12600
H234        H  0.67650946  0.25286279  0.13324192     0.12600
C235        C  0.88786099  0.29491445  0.25111732    -0.13600
C236        C  0.84472577  0.30584047  0.27267116     0.08600
C237        C  0.81203379  0.27966539  0.25401227    -0.13600
C238        C  0.81298513  0.27641908  0.20653727    -0.13600
C239        C  0.84599770  0.24961425  0.18936999     0.08600
C240        C  0.88834864  0.25968258  0.21295983    -0.13600
H241        H  0.91858008  0.31085633  0.26351292     0.12600
H242        H  0.78211228  0.27450324  0.27227953     0.12600
H243        H  0.78383592  0.28201888  0.18708325     0.12600
H244        H  0.91925358  0.24305898  0.20206736     0.12600
C245        C  0.63824678  0.25974923  0.24434864    -0.13600
C246        C  0.68070651  0.23747750  0.25611911     0.08600
C247        C  0.71424293  0.25503848  0.23001582    -0.13600
C248        C  0.71447045  0.30188848  0.22658133    -0.13600
C249        C  0.68216418  0.31976594  0.19905803     0.08600
C250        C  0.63914608  0.29752435  0.20862757    -0.13600
H251        H  0.60703284  0.24818389  0.26006870     0.12600
H252        H  0.74382004  0.23629805  0.22539785     0.12600
H253        H  0.74395564  0.32037282  0.23260134     0.12600
H254        H  0.60875291  0.30910901  0.19129943     0.12600
C255        C  0.70805270  0.29726484  0.33091126    -0.13600
C256        C  0.72338744  0.25080261  0.33346794     0.08600
C257        C  0.76415906  0.24702470  0.35924616    -0.13600
C258        C  0.79599434  0.28436801  0.35901257    -0.13600
C259        C  0.78587362  0.32705524  0.33541683     0.08600
C260        C  0.73870880  0.33481370  0.33263150    -0.13600
H261        H  0.67351847  0.30465212  0.32157578     0.12600
H262        H  0.77263585  0.21492958  0.37689115     0.12600
H263        H  0.83020787  0.27700987  0.36969020     0.12600
H264        H  0.72428797  0.36867280  0.32979365     0.12600
C265        C  0.75976692  0.14998039  0.19833625    -0.13600
C266        C  0.80108884  0.17440625  0.20256286     0.08600
C267        C  0.81583651  0.17654626  0.24985420    -0.13600
C268        C  0.78463926  0.17559087  0.28746719    -0.13600
C269        C  0.73750510  0.17400716  0.27896135     0.08600
C270        C  0.72744993  0.15095561  0.23572892    -0.13600
H271        H  0.75124559  0.13292017  0.16575183     0.12600
H272        H  0.85049512  0.18479995  0.25780653     0.12600
H273        H  0.79871107  0.17790762  0.32194634     0.12600
H274        H  0.69310080  0.14124836  0.22785063     0.12600
C275        C  0.85811289  0.17991186  0.13746857    -0.13500
C276        C  0.88524512  0.15761755  0.11542583    -0.15000
C277        C  0.85318362  0.87797232  0.82608698    -0.13500
C278        C  0.87942082  0.90099956  0.84850490    -0.15000
C279        C  0.71576479  0.89469370  0.73132952    -0.13600
C280        C  0.73613611  0.88902491  0.68654162     0.08600
C281        C  0.78148361  0.90331222  0.68609671    -0.13600
C282        C  0.80601506  0.90386997  0.72902729    -0.13600
C283        C  0.78927509  0.87904660  0.76877773     0.08600
C284        C  0.74143386  0.88309174  0.77150794    -0.13600
H285        H  0.67949725  0.89233602  0.73443105     0.12600
H286        H  0.79755756  0.91479871  0.65411948     0.12600
H287        H  0.83923618  0.91890920  0.72952779     0.12600
H288        H  0.72138137  0.87548648  0.80144193     0.12600
C289        C  0.81593164  0.79133291  0.60221865    -0.13600
C290        C  0.79953680  0.74814827  0.61885470     0.08600
C291        C  0.75536481  0.74106013  0.60280484    -0.13600
C292        C  0.72566006  0.77938983  0.60057019    -0.13600
C293        C  0.74175790  0.82398297  0.61455993     0.08600
C294        C  0.78774251  0.83078852  0.60491288    -0.13600
H295        H  0.85023790  0.79484071  0.59038560     0.12600
H296        H  0.74391642  0.70676679  0.59313841     0.12600
H297        H  0.68992028  0.77261081  0.59807659     0.12600
H298        H  0.80175043  0.86489023  0.59953889     0.12600
C299        C  0.86855959  0.73709339  0.73789064    -0.13600
C300        C  0.85378187  0.75050295  0.69265720     0.08600
C301        C  0.86663288  0.79727147  0.68415050    -0.13600
C302        C  0.86642264  0.82953264  0.72109743    -0.13600
C303        C  0.85215439  0.81544430  0.76634001     0.08600
C304        C  0.86705843  0.76930991  0.77489694    -0.13600
H305        H  0.88362432  0.70375721  0.74453551     0.12600
H306        H  0.88234518  0.80822507  0.65200832     0.12600
H307        H  0.88023810  0.86343326  0.71443171     0.12600
H308        H  0.88276090  0.75895031  0.80719154     0.12600
C309        C  0.85554528  0.68691990  0.63374835    -0.13500
C310        C  0.88141825  0.66268122  0.61206872    -0.15000
C311        C  0.74706857  0.76903019  0.74989632    -0.13600
C312        C  0.70759233  0.75170098  0.76957017     0.08600
C313        C  0.66594320  0.76540498  0.74970899    -0.13600
C314        C  0.66554764  0.79578992  0.71024436    -0.13600
C315        C  0.70682143  0.81072716  0.69041769     0.08600
C316        C  0.74674194  0.79453134  0.71013372    -0.13600
H317        H  0.77933945  0.75847067  0.76304618     0.12600
H318        H  0.63456087  0.75227807  0.76374238     0.12600
H319        H  0.63385369  0.80794318  0.69615687     0.12600
H320        H  0.77875815  0.80585773  0.69688868     0.12600
C321        C  0.71893448  0.66793127  0.72866554    -0.13600
C322        C  0.73902279  0.67425203  0.77344161     0.08600
C323        C  0.78474213  0.66141237  0.77402177    -0.13600
C324        C  0.80942076  0.66165237  0.73118744    -0.13600
C325        C  0.79205839  0.68573122  0.69128490     0.08600
C326        C  0.74437681  0.68017936  0.68850883    -0.13600
H327        H  0.68262658  0.66913882  0.72550647     0.12600
H328        H  0.80101348  0.65035761  0.80600973     0.12600
H329        H  0.84301680  0.64758575  0.73080358     0.12600
H330        H  0.72424451  0.68678186  0.65845010     0.12600
C331        C  0.72536349  0.78302677  0.85972742    -0.13600
C332        C  0.74251004  0.73890502  0.84567574     0.08600
C333        C  0.78864097  0.73333850  0.85522734    -0.13600
C334        C  0.81591337  0.77349768  0.85718420    -0.13600
C335        C  0.79826460  0.81608741  0.84047172     0.08600
C336        C  0.75408539  0.82212799  0.85699826    -0.13600
H337        H  0.68948172  0.78882836  0.86247061     0.12600
H338        H  0.80336771  0.69965940  0.86116896     0.12600
H339        H  0.85032552  0.77102793  0.86887459     0.12600
H340        H  0.74189113  0.85614950  0.86663016     0.12600
C341        C  0.85815299  0.87913561  0.13609976    -0.13500
C342        C  0.88530798  0.90045366  0.11326833    -0.15000
C343        C  0.76865241  0.75146031  0.09947442    -0.13600
C344        C  0.72739610  0.75419757  0.12448023     0.08600
C345        C  0.71130029  0.80035730  0.12712592    -0.13600
C346        C  0.74153290  0.83828487  0.12714713    -0.13600
C347        C  0.78884260  0.83110002  0.12509970     0.08600
C348        C  0.79993533  0.78922902  0.10083624    -0.13600
H349        H  0.77799789  0.71968877  0.08189564     0.12600
H350        H  0.67646682  0.80707217  0.13571810     0.12600
H351        H  0.72654007  0.87175715  0.13087944     0.12600
H352        H  0.83443090  0.78260207  0.09068497     0.12600
C353        C  0.82009589  0.68019975  0.21014711    -0.13600
C354        C  0.80438250  0.67727416  0.25710701     0.08600
C355        C  0.76322138  0.65234379  0.26021690    -0.13600
C356        C  0.73176902  0.65327274  0.22204463    -0.13600
C357        C  0.74237532  0.67720945  0.17927144     0.08600
C358        C  0.78966772  0.67978304  0.17183803    -0.13600
H359        H  0.85479851  0.68911802  0.20305577     0.12600
H360        H  0.75413996  0.63478940  0.29248694     0.12600
H361        H  0.69740599  0.64290231  0.22905173     0.12600
H362        H  0.80445156  0.68365626  0.13779965     0.12600
C363        C  0.89066314  0.76453532  0.24936547    -0.13600
C364        C  0.84794104  0.75303969  0.27159678     0.08600
C365        C  0.81486511  0.77920969  0.25356779    -0.13600
C366        C  0.81499695  0.78262981  0.20606611    -0.13600
C367        C  0.84744531  0.80985499  0.18835762     0.08600
C368        C  0.89025804  0.80010550  0.21128027    -0.13600
H369        H  0.92169486  0.74879435  0.26122617     0.12600
H370        H  0.78529974  0.78420915  0.27241166     0.12600
H371        H  0.78567440  0.77661985  0.18701616     0.12600
H372        H  0.92083106  0.81720132  0.19995895     0.12600
C373        C  0.88627546  0.66043038  0.34638486    -0.13500
C374        C  0.85981337  0.68294211  0.32362586    -0.15000
C375        C  0.71703929  0.80388920  0.23102527    -0.13600
C376        C  0.68402153  0.82119380  0.25767256     0.08600
C377        C  0.64123521  0.79922252  0.24690538    -0.13600
C378        C  0.64138963  0.76163291  0.21141032    -0.13600
C379        C  0.68419150  0.73938901  0.20125345     0.08600
C380        C  0.71705466  0.75706639  0.22801573    -0.13600
H381        H  0.74651411  0.82276903  0.22591435     0.12600
H382        H  0.61036728  0.81083668  0.26323224     0.12600
H383        H  0.61069087  0.75019265  0.19464283     0.12600
H384        H  0.74649517  0.73840416  0.23374274     0.12600
C385        C  0.81860707  0.88256029  0.24958420    -0.13600
C386        C  0.80302639  0.88521068  0.20261951     0.08600
C387        C  0.76176223  0.90980869  0.19923993    -0.13600
C388        C  0.73000907  0.90821264  0.23711092    -0.13600
C389        C  0.74080961  0.88459224  0.27997217     0.08600
C390        C  0.78804192  0.88311858  0.28773090    -0.13600
H391        H  0.85338065  0.87421803  0.25685979     0.12600
H392        H  0.75274336  0.92715574  0.16683312     0.12600
H393        H  0.69551625  0.91787250  0.22985570     0.12600
H394        H  0.80262562  0.88044140  0.32195848     0.12600
C395        C  0.76881573  0.81066080  0.35949664    -0.13600
C396        C  0.72765685  0.80704725  0.33439462     0.08600
C397        C  0.71225979  0.76060134  0.33206533    -0.13600
C398        C  0.74295701  0.72306895  0.33310526    -0.13600
C399        C  0.79015251  0.73088797  0.33515549     0.08600
C400        C  0.80059863  0.77332104  0.35877517    -0.13600
H401        H  0.77755321  0.84259868  0.37707866     0.12600
H402        H  0.67759592  0.75327914  0.32324251     0.12600
H403        H  0.72852872  0.68922158  0.33024089     0.12600
H404        H  0.83495459  0.78058988  0.36897552     0.12600
C405        C  0.15014208  0.90200090  0.84452027    -0.13500
C406        C  0.17692974  0.88010867  0.82144811    -0.15000
C407        C  0.16459314  0.73393687  0.74969558    -0.13600
C408        C  0.17721239  0.73944985  0.70185531     0.08600
C409        C  0.16231064  0.78331946  0.68579074    -0.13600
C410        C  0.16384438  0.82170202  0.71620380    -0.13600
C411        C  0.17946275  0.81610833  0.76307343     0.08600
C412        C  0.16538935  0.77226990  0.78016942    -0.13600
H413        H  0.14891413  0.70288287  0.76272116     0.12600
H414        H  0.14648441  0.78789775  0.65210213     0.12600
H415        H  0.14790729  0.85290891  0.70408417     0.12600
H416        H  0.15159752  0.76768590  0.81482510     0.12600
C417        C  0.17397063  0.67596937  0.64253301    -0.13500
C418        C  0.14755408  0.65419026  0.61883045    -0.15000
C419        C  0.24320986  0.81258287  0.60410937    -0.13600
C420        C  0.28929827  0.81253189  0.61564190     0.08600
C421        C  0.30912990  0.76793433  0.61124374    -0.13600
C422        C  0.28381594  0.72898813  0.62599214    -0.13600
C423        C  0.23662780  0.73275549  0.63415557     0.08600
C424        C  0.21846993  0.77052635  0.60792446    -0.13600
H425        H  0.22667118  0.84352753  0.59158430     0.12600
H426        H  0.34543400  0.76460791  0.61110829     0.12600
H427        H  0.30311823  0.69834224  0.63062479     0.12600
H428        H  0.18444727  0.76927247  0.59488075     0.12600
C429        C  0.24125567  0.89712475  0.67258386    -0.13600
C430        C  0.28748804  0.88738544  0.67718193     0.08600
C431        C  0.30604875  0.90352402  0.72038787    -0.13600
C432        C  0.27860234  0.90348038  0.76103852    -0.13600
C433        C  0.23351859  0.88876040  0.75773627     0.08600
C434        C  0.21521560  0.90279426  0.71394727    -0.13600
H435        H  0.22544880  0.90049260  0.63867468     0.12600
H436        H  0.34210427  0.90650802  0.72480631     0.12600
H437        H  0.29163468  0.91749375  0.79339223     0.12600
H438        H  0.18083164  0.91445917  0.71149955     0.12600
C439        C  0.24441278  0.66018362  0.78919167    -0.13600
C440        C  0.29030986  0.67015324  0.78196796     0.08600
C441        C  0.30683371  0.65378867  0.73792034    -0.13600
C442        C  0.27742959  0.65319359  0.69882825    -0.13600
C443        C  0.23249289  0.66759948  0.70448128     0.08600
C444        C  0.21647887  0.65379930  0.74936154    -0.13600
H445        H  0.23024495  0.65707758  0.82392694     0.12600
H446        H  0.34264516  0.65111043  0.73153378     0.12600
H447        H  0.28906821  0.63956298  0.66569375     0.12600
H448        H  0.18236551  0.64181514  0.75380245     0.12600
C449        C  0.24972554  0.74465751  0.85773656    -0.13600
C450        C  0.29505613  0.74512529  0.84318997     0.08600
C451        C  0.31483309  0.78986523  0.84645931    -0.13600
C452        C  0.28840271  0.82875307  0.83408518    -0.13600
C453        C  0.24095860  0.82445967  0.82843036     0.08600
C454        C  0.22446606  0.78648066  0.85554549    -0.13600
H455        H  0.23418921  0.71355511  0.87128377     0.12600
H456        H  0.35105326  0.79355415  0.84436961     0.12600
H457        H  0.30693591  0.85994719  0.82956763     0.12600
H458        H  0.19111386  0.78737325  0.87047165     0.12600
C459        C  0.36520727  0.76167408  0.74531771    -0.13600
C460        C  0.32418972  0.74435731  0.76370290     0.08600
C461        C  0.28399168  0.76162191  0.74573532    -0.13600
C462        C  0.28315417  0.79578518  0.71350665    -0.13600
C463        C  0.32236773  0.81327425  0.69336831     0.08600
C464        C  0.36427991  0.79615765  0.70947417    -0.13600
H465        H  0.39710994  0.74928559  0.75865863     0.12600
H466        H  0.25218582  0.74991773  0.75920367     0.12600
H467        H  0.25069304  0.80725017  0.70172528     0.12600
H468        H  0.39544953  0.80872471  0.69442845     0.12600
C469        C  0.85529706  0.18570899  0.82518105    -0.13500
C470        C  0.87977111  0.16151884  0.84888881    -0.15000
C471        C  0.76594555  0.17038886  0.68520094    -0.13600
C472        C  0.72330316  0.18653170  0.69959559     0.08600
C473        C  0.71589761  0.17312450  0.74709291    -0.13600
C474        C  0.75176938  0.17268003  0.77917426    -0.13600
C475        C  0.79506591  0.18618480  0.76405420     0.08600
C476        C  0.80183815  0.17047186  0.71731059    -0.13600
H477        H  0.77130738  0.15452923  0.65146693     0.12600
H478        H  0.68513868  0.15744509  0.75873523     0.12600
H479        H  0.74576572  0.15833739  0.81359140     0.12600
H480        H  0.83197989  0.15301407  0.70662454     0.12600
C481        C  0.75597208  0.32393684  0.61131190    -0.13600
C482        C  0.79876444  0.30302421  0.61696918     0.08600
C483        C  0.79859784  0.25543010  0.60505965    -0.13600
C484        C  0.75763237  0.23009266  0.60733375    -0.13600
C485        C  0.72030791  0.24891598  0.63212233     0.08600
C486        C  0.71767093  0.29799910  0.62468676    -0.13600
H487        H  0.75314892  0.36152098  0.61160659     0.12600
H488        H  0.82863993  0.23822435  0.59313428     0.12600
H489        H  0.75659454  0.19506650  0.59393797     0.12600
H490        H  0.68859723  0.31867344  0.62964964     0.12600
C491        C  0.88336023  0.31733204  0.72527740    -0.13600
C492        C  0.86884322  0.29924478  0.68115700     0.08600
C493        C  0.87721801  0.25130893  0.67623509    -0.13600
C494        C  0.87984711  0.22359844  0.71736772    -0.13600
C495        C  0.86517134  0.24241884  0.76073445     0.08600
C496        C  0.88111531  0.28827005  0.76547997    -0.13600
H497        H  0.88691956  0.35445954  0.73037390     0.12600
H498        H  0.88202074  0.23553859  0.64228786     0.12600
H499        H  0.89073929  0.18793142  0.71504252     0.12600
H500        H  0.89273745  0.30097064  0.79901773     0.12600
C501        C  0.87488871  0.39688097  0.61267785    -0.13500
C502        C  0.85178201  0.36840417  0.63305219    -0.15000
C503        C  0.64309856  0.25605206  0.78282169    -0.13600
C504        C  0.65323517  0.30338282  0.77574626     0.08600
C505        C  0.63908250  0.32066707  0.73105686    -0.13600
C506        C  0.63995841  0.29025447  0.69213366    -0.13600
C507        C  0.65415360  0.24406696  0.69886776     0.08600
C508        C  0.63868469  0.22726935  0.74285279    -0.13600
H509        H  0.63849541  0.24150066  0.81744853     0.12600
H510        H  0.63693250  0.35771871  0.72445355     0.12600
H511        H  0.62876175  0.30222401  0.65807609     0.12600
H512        H  0.62670304  0.19204410  0.74660076     0.12600
C513        C  0.72215520  0.26084552  0.85451627    -0.13600
C514        C  0.72321474  0.30776761  0.84002395     0.08600
C515        C  0.76641073  0.32798009  0.84491533    -0.13600
C516        C  0.80410292  0.30061143  0.83303295    -0.13600
C517        C  0.80021944  0.25136060  0.82814745     0.08600
C518        C  0.76258760  0.23460030  0.85403966    -0.13600
H519        H  0.69160916  0.24488019  0.86694965     0.12600
H520        H  0.77009307  0.36543901  0.84275894     0.12600
H521        H  0.83372913  0.32028340  0.82720548     0.12600
H522        H  0.76283705  0.20017804  0.86923365     0.12600
C523        C  0.74331320  0.29700151  0.74330720    -0.13600
C524        C  0.72579920  0.33852671  0.76050768     0.08600
C525        C  0.74426805  0.38091950  0.74376602    -0.13600
C526        C  0.77989227  0.37997454  0.71028049    -0.13600
C527        C  0.79721959  0.33666507  0.69503523     0.08600
C528        C  0.77879169  0.29610341  0.71396340    -0.13600
H529        H  0.73105978  0.26403917  0.75579543     0.12600
H530        H  0.73189903  0.41387849  0.75668402     0.12600
H531        H  0.79310378  0.41221177  0.69620175     0.12600
H532        H  0.79020118  0.26240518  0.70286478     0.12600
C533        C  0.64099402  0.16337570  0.34933816    -0.13500
C534        C  0.66701231  0.18642131  0.32656457    -0.15000
C535        C  0.64434121  0.88899106  0.61152731    -0.13500
C536        C  0.67346334  0.86863510  0.63284281    -0.15000
C537        C  0.64303907  0.89220316  0.34874708    -0.13500
C538        C  0.67062158  0.87048553  0.32732097    -0.15000
C539        C  0.35353715  0.86569470  0.62957685    -0.13500
C540        C  0.38252509  0.88664304  0.60859396    -0.15000
C541        C  0.64091120  0.15820683  0.61544200    -0.13500
C542        C  0.66388691  0.18456029  0.63810006    -0.15000
C543        C  0.35771789  0.86765915  0.32129899    -0.13500
C544        C  0.38573708  0.89021970  0.34208963    -0.15000
C545        C  0.21730533  0.78594779  0.35419152    -0.13600
C546        C  0.23446769  0.74286505  0.33829597     0.08600
C547        C  0.27912985  0.73727432  0.35379738    -0.13600
C548        C  0.30788469  0.77642781  0.35573655    -0.13600
C549        C  0.29080593  0.82050398  0.34124423     0.08600
C550        C  0.24468988  0.82608080  0.35101877    -0.13600
H551        H  0.18303446  0.78884910  0.36622504     0.12600
H552        H  0.29119113  0.70383596  0.36548928     0.12600
H553        H  0.34376739  0.77066832  0.35857917     0.12600
H554        H  0.23002654  0.85983920  0.35643242     0.12600
C555        C  0.15196290  0.65673286  0.35040195    -0.13500
C556        C  0.17789668  0.68036652  0.32759248    -0.15000
C557        C  0.16448074  0.82036190  0.23537882    -0.13600
C558        C  0.17906831  0.80633134  0.19027409     0.08600
C559        C  0.16557065  0.75963176  0.18267721    -0.13600
C560        C  0.16504512  0.72775646  0.22026658    -0.13600
C561        C  0.17928311  0.74198618  0.26539253     0.08600
C562        C  0.16507893  0.78843369  0.27294832    -0.13600
H563        H  0.14972339  0.85388093  0.24148956     0.12600
H564        H  0.14995180  0.74851025  0.15064812     0.12600
H565        H  0.15042568  0.69415202  0.21418818     0.12600
H566        H  0.14919944  0.79923391  0.30498416     0.12600
C567        C  0.22316815  0.89605942  0.22597481    -0.13600
C568        C  0.24033476  0.87154013  0.18643825     0.08600
C569        C  0.28785628  0.87779653  0.18284503    -0.13600
C570        C  0.31369467  0.88997338  0.22261501    -0.13600
C571        C  0.29394872  0.88426458  0.26772548     0.08600
C572        C  0.24820826  0.89704031  0.26851080    -0.13600
H573        H  0.18954223  0.91005760  0.22556639     0.12600
H574        H  0.30735906  0.87279227  0.15204193     0.12600
H575        H  0.34997692  0.88894869  0.21904109     0.12600
H576        H  0.23218159  0.90854497  0.30041599     0.12600
C577        C  0.15124327  0.89413301  0.10762822    -0.13500
C578        C  0.17675235  0.86914291  0.12929145    -0.15000
C579        C  0.28565607  0.76095575  0.20913811    -0.13600
C580        C  0.32531933  0.74358695  0.19001080     0.08600
C581        C  0.36683044  0.75908433  0.20877379    -0.13600
C582        C  0.36691761  0.79156586  0.24638643    -0.13600
C583        C  0.32550073  0.80690207  0.26544214     0.08600
C584        C  0.28574657  0.78906192  0.24680453    -0.13600
H585        H  0.25344524  0.74946805  0.19661732     0.12600
H586        H  0.39834357  0.74602440  0.19511589     0.12600
H587        H  0.39846075  0.80484020  0.25973235     0.12600
H588        H  0.25351880  0.80036946  0.25950141     0.12600
C589        C  0.31440424  0.65995062  0.23217819    -0.13600
C590        C  0.29435409  0.66584027  0.18727588     0.08600
C591        C  0.24871710  0.65249716  0.18680016    -0.13600
C592        C  0.22396698  0.65270973  0.22962570    -0.13600
C593        C  0.24108379  0.67728319  0.26914007     0.08600
C594        C  0.28866932  0.67148658  0.27228239    -0.13600
H595        H  0.35069441  0.66126928  0.23547837     0.12600
H596        H  0.23259863  0.64102121  0.15495182     0.12600
H597        H  0.19050243  0.63826469  0.23026950     0.12600
H598        H  0.30817393  0.67619861  0.30311194     0.12600
C599        C  0.30702903  0.77440810  0.09973341    -0.13600
C600        C  0.29023706  0.73023483  0.11435620     0.08600
C601        C  0.24424620  0.72400687  0.10435662    -0.13600
C602        C  0.21653168  0.76381425  0.10055108    -0.13600
C603        C  0.23322356  0.80711656  0.11628609     0.08600
C604        C  0.27780283  0.81315009  0.10078923    -0.13600
H605        H  0.34287197  0.78060656  0.09718513     0.12600
H606        H  0.22988840  0.69004845  0.09935225     0.12600
H607        H  0.18225783  0.76048968  0.08862438     0.12600
H608        H  0.28954820  0.84673947  0.08906408     0.12600
C609        C  0.67159595  0.37149917  0.12868310    -0.13500
C610        C  0.64591354  0.39515380  0.10611881    -0.15000
C611        C  0.64646889  0.67146179  0.84658859    -0.13500
C612        C  0.67550155  0.69282745  0.82633916    -0.15000
C613        C  0.64542123  0.66623124  0.10947690    -0.13500
C614        C  0.67195806  0.68898338  0.13148052    -0.15000
C615        C  0.38805781  0.67073898  0.84531401    -0.13500
C616        C  0.35857457  0.69208928  0.82564920    -0.15000
C617        C  0.67166623  0.37283378  0.82087349    -0.13500
C618        C  0.64976997  0.40229150  0.84059239    -0.15000
C619        C  0.38672979  0.66383846  0.11213814    -0.13500
C620        C  0.35776644  0.68436131  0.13348472    -0.15000
C621        C  0.36338723  0.37354786  0.82302213    -0.13500
C622        C  0.38969582  0.39776798  0.84392191    -0.15000
C623        C  0.27135070  0.40560818  0.69348419    -0.13600
C624        C  0.23010610  0.38111324  0.69839022     0.08600
C625        C  0.21496370  0.38034108  0.74561144    -0.13600
C626        C  0.24585053  0.38270494  0.78337213    -0.13600
C627        C  0.29301923  0.38420348  0.77510188     0.08600
C628        C  0.30334373  0.40598262  0.73110739    -0.13600
H629        H  0.27997575  0.42193727  0.66043954     0.12600
H630        H  0.18027742  0.37212230  0.75360205     0.12600
H631        H  0.23159179  0.38159931  0.81786335     0.12600
H632        H  0.33771230  0.41562151  0.72311267     0.12600
C633        C  0.17302283  0.37417031  0.63427306    -0.13500
C634        C  0.14520911  0.39664957  0.61347384    -0.15000
C635        C  0.23418027  0.27489092  0.85798314    -0.13600
C636        C  0.24501300  0.23172424  0.83595090     0.08600
C637        C  0.29230918  0.22452353  0.83394086    -0.13600
C638        C  0.32262726  0.26239246  0.83143090    -0.13600
C639        C  0.30688924  0.30878808  0.83230870     0.08600
C640        C  0.26557294  0.31267698  0.85723830    -0.13600
H641        H  0.19976099  0.28208480  0.86804120     0.12600
H642        H  0.30712698  0.19077874  0.83236889     0.12600
H643        H  0.35734850  0.25514225  0.82276376     0.12600
H644        H  0.25647123  0.34502843  0.87379758     0.12600
C645        C  0.14355009  0.26059755  0.74965714    -0.13600
C646        C  0.18661171  0.25076816  0.77194105     0.08600
C647        C  0.21914178  0.27710979  0.75302696    -0.13600
C648        C  0.21866734  0.27941316  0.70551912    -0.13600
C649        C  0.18555003  0.30547333  0.68743178     0.08600
C650        C  0.14301087  0.29512280  0.71062531    -0.13600
H651        H  0.11293060  0.24433572  0.76205789     0.12600
H652        H  0.24883648  0.28295428  0.77139534     0.12600
H653        H  0.24806242  0.27392241  0.68646015     0.12600
H654        H  0.11200347  0.31100607  0.69888196     0.12600
C655        C  0.14861505  0.15958888  0.84718268    -0.13500
C656        C  0.17584582  0.18212883  0.82557631    -0.15000
C657        C  0.31713355  0.25511907  0.72712324    -0.13600
C658        C  0.34976177  0.23711653  0.70022004     0.08600
C659        C  0.39254793  0.25992020  0.70933003    -0.13600
C660        C  0.39289706  0.29843059  0.74394193    -0.13600
C661        C  0.35014234  0.32042757  0.75487656     0.08600
C662        C  0.31692743  0.30198475  0.72920169    -0.13600
H663        H  0.28769191  0.23654242  0.73324053     0.12600
H664        H  0.42313486  0.24828371  0.69245037     0.12600
H665        H  0.42390989  0.31070112  0.75942445     0.12600
H666        H  0.28728089  0.32038494  0.72388464     0.12600
C667        C  0.26282679  0.24429020  0.60005357    -0.13600
C668        C  0.30455651  0.24857048  0.62403843     0.08600
C669        C  0.32004720  0.29505561  0.62451271    -0.13600
C670        C  0.28946338  0.33265613  0.62256052    -0.13600
C671        C  0.24219799  0.32504798  0.62183544     0.08600
C672        C  0.23115470  0.28177575  0.60013599    -0.13600
H673        H  0.25363941  0.21183608  0.58374413     0.12600
H674        H  0.35490506  0.30259463  0.63222756     0.12600
H675        H  0.30407335  0.36653996  0.62339489     0.12600
H676        H  0.19657329  0.27427584  0.59099228     0.12600
C677        C  0.24499916  0.17418766  0.67445878    -0.13600
C678        C  0.29233655  0.17305966  0.68147803     0.08600
C679        C  0.30383807  0.15116068  0.72507097    -0.13600
C680        C  0.27275246  0.15120856  0.76356504    -0.13600
C681        C  0.23127494  0.17541694  0.75982436     0.08600
C682        C  0.21500046  0.17613080  0.71304171    -0.13600
H683        H  0.22992270  0.17538235  0.64037899     0.12600
H684        H  0.33844351  0.14175869  0.73208552     0.12600
H685        H  0.28228517  0.13497834  0.79637156     0.12600
H686        H  0.18008318  0.18406278  0.70601415     0.12600
C687        C  0.36117652  0.18418312  0.63163059    -0.13500
C688        C  0.38663464  0.15976508  0.60997667    -0.15000
C689        C  0.14637157  0.39505371  0.35136931    -0.13500
C690        C  0.17309997  0.37460880  0.32702527    -0.15000
C691        C  0.21794920  0.28014240  0.20506190    -0.13600
C692        C  0.18523824  0.25399569  0.18634343     0.08600
C693        C  0.14242381  0.26366347  0.20919651    -0.13600
C694        C  0.14225763  0.29771366  0.24845561    -0.13600
C695        C  0.18491401  0.30757648  0.27154741     0.08600
C696        C  0.21793827  0.28194839  0.25265618    -0.13600
H697        H  0.24746158  0.28624624  0.18633648     0.12600
H698        H  0.11166087  0.24766980  0.19698903     0.12600
H699        H  0.11136668  0.31356590  0.26051252     0.12600
H700        H  0.24748053  0.27597685  0.27133405     0.12600
C701        C  0.14869671  0.16260595  0.10928170    -0.13500
C702        C  0.17454658  0.18551469  0.13220044    -0.15000
C703        C  0.26457080  0.24686439  0.35800732    -0.13600
C704        C  0.30565424  0.25129016  0.33289375     0.08600
C705        C  0.32106868  0.29778473  0.33168959    -0.13600
C706        C  0.29033503  0.33521324  0.33337148    -0.13600
C707        C  0.24315603  0.32720986  0.33541303     0.08600
C708        C  0.23274820  0.28414319  0.35811912    -0.13600
H709        H  0.25578752  0.21428526  0.37458501     0.12600
H710        H  0.35575604  0.30539129  0.32311830     0.12600
H711        H  0.30479638  0.36909552  0.33099167     0.12600
H712        H  0.19839502  0.27654246  0.36817671     0.12600
C713        C  0.24467174  0.17767461  0.28356473    -0.13600
C714        C  0.29196758  0.17614577  0.27593662     0.08600
C715        C  0.30281160  0.15409827  0.23235936    -0.13600
C716        C  0.27125042  0.15410780  0.19430504    -0.13600
C717        C  0.22987976  0.17843407  0.19835180     0.08600
C718        C  0.21419108  0.17932724  0.24537190    -0.13600
H719        H  0.22991939  0.17966897  0.31777059     0.12600
H720        H  0.33728955  0.14453043  0.22492327     0.12600
H721        H  0.28040362  0.13788464  0.16146007     0.12600
H722        H  0.17938724  0.18742318  0.25281527     0.12600
C723        C  0.36154236  0.18681246  0.32515196    -0.13500
C724        C  0.38671832  0.16296847  0.34803728    -0.15000
C725        C  0.31595047  0.30524291  0.22777640    -0.13600
C726        C  0.34865529  0.32394708  0.20129359     0.08600
C727        C  0.39158397  0.30162840  0.21102059    -0.13600
C728        C  0.39196575  0.26285220  0.24563896    -0.13600
C729        C  0.34939742  0.23999193  0.25585645     0.08600
C730        C  0.31626897  0.25830245  0.22973495    -0.13600
H731        H  0.28629179  0.32348191  0.23387414     0.12600
H732        H  0.42224832  0.31382793  0.19461125     0.12600
H733        H  0.42291924  0.25100701  0.26164383     0.12600
H734        H  0.28686953  0.23961636  0.22382898     0.12600
C735        C  0.30086407  0.40918001  0.22516792    -0.13600
C736        C  0.29024048  0.38696432  0.18161659     0.08600
C737        C  0.24292064  0.38472301  0.17426885    -0.13600
C738        C  0.21249881  0.38282382  0.21261103    -0.13600
C739        C  0.22814564  0.38411499  0.25964559     0.08600
C740        C  0.26932826  0.40890435  0.26336379    -0.13600
H741        H  0.33524311  0.41920545  0.23246979     0.12600
H742        H  0.22808976  0.38239419  0.14014838     0.12600
H743        H  0.17778734  0.37427545  0.20526529     0.12600
H744        H  0.27841385  0.42527209  0.29615550     0.12600
C745        C  0.32076904  0.26572288  0.12558128    -0.13600
C746        C  0.30469530  0.31197121  0.12457289     0.08600
C747        C  0.26348513  0.31579486  0.09963683    -0.13600
C748        C  0.23219209  0.27799589  0.09956726    -0.13600
C749        C  0.24330029  0.23501249  0.12205871     0.08600
C750        C  0.29058888  0.22780041  0.12375304    -0.13600
H751        H  0.35558538  0.25863634  0.13393651     0.12600
H752        H  0.25420300  0.34826055  0.08315925     0.12600
H753        H  0.19769680  0.28507641  0.08973132     0.12600
H754        H  0.30550513  0.19411476  0.12571126     0.12600
C755        C  0.38632030  0.39932045  0.10875277    -0.13500
C756        C  0.36017954  0.37684274  0.13195900    -0.15000
loop_ 
_geom_bond_atom_site_label_1 
_geom_bond_atom_site_label_2 
_geom_bond_distance 
_geom_bond_site_symmetry_2 
_ccdc_geom_bond_type 
C1          C726   1.586       .  S
C1          C736   1.627       .  S
C1          C746   1.611       .  S
C1          C756   1.465       .  S
C2          C704   1.611       .  S
C2          C714   1.625       .  S
C2          C729   1.586       .  S
C2          C723   1.464       .  S
C3          C692   1.590       .  S
C3          C717   1.613       .  S
C3          C749   1.622       .  S
C3          C702   1.464       .  S
C4          C695   1.590       .  S
C4          C707   1.622       .  S
C4          C739   1.617       .  S
C4          C690   1.468       .  S
C5          C658   1.584       .  S
C5          C668   1.613       .  S
C5          C678   1.623       .  S
C5          C687   1.461       .  S
C6          C636   1.625       .  S
C6          C646   1.588       .  S
C6          C681   1.611       .  S
C6          C656   1.462       .  S
C7          C624   1.612       .  S
C7          C649   1.588       .  S
C7          C671   1.624       .  S
C7          C633   1.463       .  S
C8          C627   1.624       .  S
C8          C639   1.616       .  S
C8          C661   1.584       .  S
C8          C621   1.465       .  S
N9           N10   1.320       .  A
N9           N15   1.316       .  A
N9          Mn38   2.200   1_554  S
N10          C17   1.350       .  A
N11          N13   1.317       .  A
N11          N12   1.323       .  A
N11         Mn27   2.208       .  S
N12          C18   1.352       .  A
N13          N14   1.320       .  A
N13         Mn38   2.202   1_554  S
N14          C18   1.350       .  A
N15          N16   1.321       .  A
N15         Mn27   2.199       .  S
N16          C17   1.351       .  A
C17         C755   1.434       .  S
C18         C619   1.439       .  S
N19          N25   1.316       .  A
N19          N20   1.318       .  A
N19         Mn49   2.190   1_554  S
N20          C28   1.348       .  A
N21          N22   1.322       .  A
N21          N23   1.317       .  A
N21         Mn27   2.208       .  S
N22          C29   1.352       .  A
N23          N24   1.320       .  A
N23         Mn49   2.200   1_554  S
N24          C29   1.350       .  A
N25          N26   1.321       .  A
N25         Mn27   2.197       .  S
N26          C28   1.351       .  A
Mn27        Cl51   2.558   1_554  S
C28         C613   1.428       .  S
C29         C610   1.436       .  S
N30          N31   1.319       .  A
N30          N36   1.316       .  A
N30         Mn38   2.198       .  S
N31          C39   1.349       .  A
N32          N34   1.317       .  A
N32          N33   1.322       .  A
N32         Mn50   2.211       .  S
N33          C40   1.353       .  A
N34          N35   1.319       .  A
N34         Mn38   2.197       .  S
N35          C40   1.348       .  A
N36          N37   1.323       .  A
N36         Mn50   2.210       .  S
N37          C39   1.353       .  A
Mn38        Cl51   2.532       .  S
C39         C615   1.436       .  S
C40         C622   1.434       .  S
N41          N42   1.320       .  A
N41          N47   1.317       .  A
N41         Mn49   2.193       .  S
N42          C52   1.348       .  A
N43          N44   1.322       .  A
N43          N45   1.316       .  A
N43         Mn50   2.203       .  S
N44          C53   1.351       .  A
N45          N46   1.318       .  A
N45         Mn49   2.196       .  S
N46          C53   1.349       .  A
N47          N48   1.323       .  A
N47         Mn50   2.216       .  S
N48          C52   1.353       .  A
Mn49        Cl51   2.532       .  S
Mn50        Cl51   2.561       .  S
C52         C618   1.438       .  S
C53         C611   1.432       .  S
C54         C580   1.539       .  S
C54         C590   1.585       .  S
C54         C600   1.573       .  S
C54         C620   1.476       .  S
C55         C558   1.610       .  S
C55         C568   1.618       .  S
C55         C603   1.607       .  S
C55         C578   1.478       .  S
C56         C546   1.608       .  S
C56         C561   1.610       .  S
C56         C593   1.621       .  S
C56         C556   1.480       .  S
C57         C549   1.574       .  S
C57         C571   1.584       .  S
C57         C583   1.541       .  S
C57         C543   1.480       .  S
N58          N59   1.320       .  A
N58          N64   1.316       .  A
N58         Mn87   2.204       .  S
N59          C66   1.351       .  A
N60          N62   1.316       .  A
N60          N61   1.324       .  A
N60         Mn76   2.212   1_565  S
N61          C67   1.353       .  A
N62          N63   1.321       .  A
N62         Mn87   2.207   1_565  S
N63          C67   1.351       .  A
N64          N65   1.320       .  A
N64         Mn76   2.195       .  S
N65          C66   1.350       .  A
C66         C724   1.433       .  S
C67         C544   1.444       .  S
N68          N74   1.316       .  A
N68          N69   1.316       .  A
N68         Mn98   2.182   1_565  S
N69          C77   1.346       .  A
N70          N71   1.321       .  A
N70          N72   1.317       .  A
N70         Mn76   2.202       .  S
N71          C78   1.350       .  A
N72          N73   1.320       .  A
N72         Mn98   2.205       .  S
N73          C78   1.350       .  A
N74          N75   1.320       .  A
N74         Mn76   2.195   1_565  S
N75          C77   1.351       .  A
Mn76       Cl100   2.557       .  S
C77         C537   1.421       .  S
C78         C533   1.434       .  S
N79          N80   1.320       .  A
N79          N85   1.317       .  A
N79         Mn87   2.201   1_565  S
N80          C88   1.350       .  A
N81          N83   1.317       .  A
N81          N82   1.321       .  A
N81         Mn99   2.201       .  S
N82          C89   1.351       .  A
N83          N84   1.319       .  A
N83         Mn87   2.198       .  S
N84          C89   1.349       .  A
N85          N86   1.323       .  A
N85         Mn99   2.212   1_565  S
N86          C88   1.352       .  A
Mn87       Cl100   2.535       .  S
C88         C540   1.437       .  S
C89         C688   1.430       .  S
N90          N91   1.320       .  A
N90          N96   1.316       .  A
N90         Mn98   2.191       .  S
N91         C101   1.349       .  A
N92          N93   1.322       .  A
N92          N94   1.316       .  A
N92         Mn99   2.205   1_565  S
N93         C102   1.352       .  A
N94          N95   1.320       .  A
N94         Mn98   2.204   1_565  S
N95         C102   1.350       .  A
N96          N97   1.323       .  A
N96         Mn99   2.216       .  S
N97         C101   1.354       .  A
Mn98       Cl100   2.535       .  S
Mn99       Cl100   2.557       .  S
C101        C541   1.438       .  S
C102        C535   1.438       .  S
C103        C504   1.568       .  S
C103        C514   1.583       .  S
C103        C524   1.544       .  S
C103        C617   1.473       .  S
C104        C482   1.586       .  S
C104        C492   1.572       .  S
C104        C527   1.544       .  S
C104        C502   1.484       .  S
C105        C472   1.608       .  S
C105        C485   1.621       .  S
C105        C507   1.602       .  S
C105        C542   1.471       .  S
C106        C475   1.608       .  S
C106        C495   1.606       .  S
C106        C517   1.619       .  S
C106        C469   1.475       .  S
C107        C440   1.574       .  S
C107        C450   1.582       .  S
C107        C460   1.536       .  S
C107        C616   1.474       .  S
C108        C420   1.582       .  S
C108        C430   1.574       .  S
C108        C463   1.537       .  S
C108        C539   1.474       .  S
C109        C408   1.609       .  S
C109        C423   1.617       .  S
C109        C443   1.609       .  S
C109        C417   1.476       .  S
C110        C411   1.608       .  S
C110        C433   1.608       .  S
C110        C453   1.617       .  S
C110        C406   1.474       .  S
C111        C376   1.579       .  S
C111        C389   1.623       .  S
C111        C396   1.612       .  S
C111        C538   1.453       .  S
C112        C354   1.615       .  S
C112        C364   1.589       .  S
C112        C399   1.623       .  S
C112        C374   1.466       .  S
C113        C344   1.611       .  S
C113        C357   1.626       .  S
C113        C379   1.581       .  S
C113        C614   1.459       .  S
C114        C347   1.622       .  S
C114        C367   1.588       .  S
C114        C386   1.611       .  S
C114        C341   1.459       .  S
C115        C312   1.537       .  S
C115        C322   1.584       .  S
C115        C332   1.570       .  S
C115        C612   1.469       .  S
C116        C290   1.603       .  S
C116        C300   1.606       .  S
C116        C325   1.619       .  S
C116        C309   1.472       .  S
C117        C280   1.587       .  S
C117        C293   1.571       .  S
C117        C315   1.538       .  S
C117        C536   1.474       .  S
C118        C283   1.620       .  S
C118        C303   1.606       .  S
C118        C335   1.601       .  S
C118        C277   1.469       .  S
N119        N120   1.320       .  A
N119        N125   1.317       .  A
N119       Mn148   2.198       .  S
N120        C127   1.350       .  A
N121        N123   1.317       .  A
N121        N122   1.321       .  A
N121       Mn137   2.201   1_654  S
N122        C128   1.350       .  A
N123        N124   1.322       .  A
N123       Mn148   2.211   1_655  S
N124        C128   1.351       .  A
N125        N126   1.320       .  A
N125       Mn137   2.202   1_554  S
N126        C127   1.350       .  A
C127        C701   1.433       .  S
C128        C276   1.437       .  S
N129        N135   1.317       .  A
N129        N130   1.322       .  A
N129       Mn159   2.213   1_655  S
N130        C138   1.352       .  A
N131        N132   1.319       .  A
N131        N133   1.316       .  A
N131       Mn137   2.196       .  S
N132        C139   1.349       .  A
N133        N134   1.320       .  A
N133       Mn159   2.198       .  S
N134        C139   1.351       .  A
N135        N136   1.322       .  A
N135       Mn137   2.210   1_655  S
N136        C138   1.352       .  A
Mn137      Cl161   2.549       .  S
C138        C470   1.443       .  S
C139        C655   1.431       .  S
N140        N141   1.319       .  A
N140        N146   1.317       .  A
N140       Mn148   2.192   1_665  S
N141        C149   1.348       .  A
N142        N144   1.318       .  A
N142        N143   1.322       .  A
N142       Mn160   2.210   1_554  S
N143        C150   1.351       .  A
N144        N145   1.324       .  A
N144       Mn148   2.218   1_565  S
N145        C150   1.353       .  A
N146        N147   1.320       .  A
N146       Mn160   2.201   1_654  S
N147        C149   1.350       .  A
Mn148      Cl161   2.549   1_554  S
C149        C342   1.428       .  S
C150        C577   1.445       .  S
N151        N152   1.322       .  A
N151        N157   1.317       .  A
N151       Mn159   2.214   1_565  S
N152        C162   1.352       .  A
N153        N154   1.322       .  A
N153        N155   1.317       .  A
N153       Mn160   2.214   1_655  S
N154        C163   1.352       .  A
N155        N156   1.320       .  A
N155       Mn159   2.196   1_665  S
N156        C163   1.349       .  A
N157        N158   1.322       .  A
N157       Mn160   2.202       .  S
N158        C162   1.351       .  A
Mn159      Cl161   2.550       .  S
Mn160      Cl161   2.550   1_565  S
C162        C405   1.441       .  S
C163        C278   1.436       .  S
C164        C246   1.586       .  S
C164        C256   1.612       .  S
C164        C269   1.625       .  S
C164        C534   1.465       .  S
C165        C226   1.625       .  S
C165        C239   1.589       .  S
C165        C266   1.613       .  S
C165        C275   1.467       .  S
C166        C216   1.625       .  S
C166        C229   1.614       .  S
C166        C249   1.586       .  S
C166        C609   1.467       .  S
C167        C219   1.613       .  S
C167        C236   1.589       .  S
C167        C259   1.624       .  S
C167        C213   1.465       .  S
N168        N169   1.323       .  A
N168        N174   1.318       .  A
N168       Mn197   2.218       .  S
N169        C176   1.353       .  A
N170        N172   1.317       .  A
N170        N171   1.320       .  A
N170       Mn186   2.197   1_655  S
N171        C177   1.350       .  A
N172        N173   1.321       .  A
N172       Mn197   2.210   1_655  S
N173        C177   1.351       .  A
N174        N175   1.323       .  A
N174       Mn186   2.214       .  S
N175        C176   1.353       .  A
C176        C555   1.447       .  S
C177        C373   1.435       .  S
N178        N184   1.317       .  A
N178        N179   1.320       .  A
N178       Mn208   2.193   1_655  S
N179        C187   1.349       .  A
N180        N181   1.319       .  A
N180        N182   1.317       .  A
N180       Mn186   2.194       .  S
N181        C188   1.348       .  A
N182        N183   1.323       .  A
N182       Mn208   2.217       .  S
N183        C188   1.354       .  A
N184        N185   1.321       .  A
N184       Mn186   2.211   1_655  S
N185        C187   1.351       .  A
Mn186      Cl210   2.550       .  S
C187        C214   1.434       .  S
C188        C689   1.437       .  S
N189        N190   1.322       .  A
N189        N195   1.318       .  A
N189       Mn197   2.214   1_655  S
N190        C198   1.352       .  A
N191        N193   1.318       .  A
N191        N192   1.322       .  A
N191       Mn209   2.213       .  S
N192        C199   1.351       .  A
N193        N194   1.323       .  A
N193       Mn197   2.211       .  S
N194        C199   1.352       .  A
N195        N196   1.321       .  A
N195       Mn209   2.204   1_655  S
N196        C198   1.351       .  A
Mn197      Cl210   2.552       .  S
C198        C310   1.439       .  S
C199        C418   1.443       .  S
N200        N201   1.319       .  A
N200        N206   1.316       .  A
N200       Mn208   2.193       .  S
N201        C211   1.349       .  A
N202        N203   1.325       .  A
N202        N204   1.318       .  A
N202       Mn209   2.221   1_655  S
N203        C212   1.354       .  A
N204        N205   1.322       .  A
N204       Mn208   2.216   1_655  S
N205        C212   1.352       .  A
N206        N207   1.321       .  A
N206       Mn209   2.204       .  S
N207        C211   1.351       .  A
Mn208      Cl210   2.551       .  S
Mn209      Cl210   2.554       .  S
C211        C634   1.432       .  S
C212        C501   1.449       .  S
C213        C214   1.205       .  T
C215        C216   1.423       .  A
C215        C220   1.414       .  A
C215        H221   1.067       .  S
C216        C217   1.428       .  A
C217        C218   1.431       .  A
C217        H222   1.082       .  S
C218        C219   1.420       .  A
C218        H223   1.078       .  S
C219        C220   1.414       .  A
C220        H224   1.082       .  S
C225        C226   1.423       .  A
C225        C230   1.414       .  A
C225        H231   1.067       .  S
C226        C227   1.428       .  A
C227        C228   1.432       .  A
C227        H232   1.082       .  S
C228        C229   1.421       .  A
C228        H233   1.078       .  S
C229        C230   1.414       .  A
C230        H234   1.082       .  S
C235        C236   1.455       .  A
C235        C240   1.485       .  A
C235        H241   1.081       .  S
C236        C237   1.340       .  A
C237        C238   1.351       .  A
C237        H242   1.040       .  S
C238        C239   1.341       .  A
C238        H243   1.040       .  S
C239        C240   1.456       .  A
C240        H244   1.081       .  S
C245        C246   1.454       .  A
C245        C250   1.483       .  A
C245        H251   1.081       .  S
C246        C247   1.339       .  A
C247        C248   1.350       .  A
C247        H252   1.040       .  S
C248        C249   1.340       .  A
C248        H253   1.040       .  S
C249        C250   1.455       .  A
C250        H254   1.081       .  S
C255        C256   1.413       .  A
C255        C260   1.414       .  A
C255        H261   1.082       .  S
C256        C257   1.420       .  A
C257        C258   1.431       .  A
C257        H262   1.078       .  S
C258        C259   1.428       .  A
C258        H263   1.082       .  S
C259        C260   1.422       .  A
C260        H264   1.067       .  S
C265        C266   1.420       .  A
C265        C270   1.431       .  A
C265        H271   1.078       .  S
C266        C267   1.414       .  A
C267        C268   1.414       .  A
C267        H272   1.082       .  S
C268        C269   1.423       .  A
C268        H273   1.067       .  S
C269        C270   1.428       .  A
C270        H274   1.082       .  S
C275        C276   1.206       .  T
C277        C278   1.206       .  T
C279        C280   1.418       .  A
C279        C284   1.412       .  A
C279        H285   1.084       .  S
C280        C281   1.409       .  A
C281        C282   1.421       .  A
C281        H286   1.076       .  S
C282        C283   1.422       .  A
C282        H287   1.078       .  S
C283        C284   1.429       .  A
C284        H288   1.060       .  S
C289        C290   1.413       .  A
C289        C294   1.413       .  A
C289        H295   1.078       .  S
C290        C291   1.405       .  A
C291        C292   1.414       .  A
C291        H296   1.079       .  S
C292        C293   1.426       .  A
C292        H297   1.083       .  S
C293        C294   1.408       .  A
C294        H298   1.075       .  S
C299        C300   1.410       .  A
C299        C304   1.403       .  A
C299        H305   1.074       .  S
C300        C301   1.418       .  A
C301        C302   1.402       .  A
C301        H306   1.071       .  S
C302        C303   1.410       .  A
C302        H307   1.074       .  S
C303        C304   1.419       .  A
C304        H308   1.070       .  S
C309        C310   1.208       .  T
C311        C312   1.391       .  A
C311        C316   1.344       .  A
C311        H317   1.073       .  S
C312        C313   1.417       .  A
C313        C314   1.418       .  A
C313        H318   1.082       .  S
C314        C315   1.416       .  A
C314        H319   1.082       .  S
C315        C316   1.392       .  A
C316        H320   1.073       .  S
C321        C322   1.417       .  A
C321        C326   1.411       .  A
C321        H327   1.084       .  S
C322        C323   1.409       .  A
C323        C324   1.419       .  A
C323        H328   1.076       .  S
C324        C325   1.423       .  A
C324        H329   1.078       .  S
C325        C326   1.429       .  A
C326        H330   1.059       .  S
C331        C332   1.425       .  A
C331        C336   1.413       .  A
C331        H337   1.083       .  S
C332        C333   1.407       .  A
C333        C334   1.412       .  A
C333        H338   1.076       .  S
C334        C335   1.413       .  A
C334        H339   1.078       .  S
C335        C336   1.406       .  A
C336        H340   1.079       .  S
C341        C342   1.201       .  T
C343        C344   1.419       .  A
C343        C348   1.430       .  A
C343        H349   1.079       .  S
C344        C345   1.413       .  A
C345        C346   1.413       .  A
C345        H350   1.081       .  S
C346        C347   1.423       .  A
C346        H351   1.066       .  S
C347        C348   1.427       .  A
C348        H352   1.082       .  S
C353        C354   1.414       .  A
C353        C358   1.415       .  A
C353        H359   1.082       .  S
C354        C355   1.421       .  A
C355        C356   1.432       .  A
C355        H360   1.078       .  S
C356        C357   1.428       .  A
C356        H361   1.082       .  S
C357        C358   1.424       .  A
C358        H362   1.066       .  S
C363        C364   1.455       .  A
C363        C368   1.485       .  A
C363        H369   1.081       .  S
C364        C365   1.339       .  A
C365        C366   1.351       .  A
C365        H370   1.039       .  S
C366        C367   1.339       .  A
C366        H371   1.041       .  S
C367        C368   1.457       .  A
C368        H372   1.081       .  S
C373        C374   1.206       .  T
C375        C376   1.336       .  A
C375        C380   1.349       .  A
C375        H381   1.041       .  S
C376        C377   1.453       .  A
C377        C378   1.480       .  A
C377        H382   1.081       .  S
C378        C379   1.454       .  A
C378        H383   1.081       .  S
C379        C380   1.339       .  A
C380        H384   1.040       .  S
C385        C386   1.413       .  A
C385        C390   1.413       .  A
C385        H391   1.081       .  S
C386        C387   1.420       .  A
C387        C388   1.431       .  A
C387        H392   1.079       .  S
C388        C389   1.428       .  A
C388        H393   1.082       .  S
C389        C390   1.422       .  A
C390        H394   1.067       .  S
C395        C396   1.420       .  A
C395        C400   1.431       .  A
C395        H401   1.078       .  S
C396        C397   1.413       .  A
C397        C398   1.414       .  A
C397        H402   1.082       .  S
C398        C399   1.422       .  A
C398        H403   1.067       .  S
C399        C400   1.428       .  A
C400        H404   1.082       .  S
C405        C406   1.209       .  T
C407        C408   1.417       .  A
C407        C412   1.403       .  A
C407        H413   1.072       .  S
C408        C409   1.411       .  A
C409        C410   1.404       .  A
C409        H414   1.074       .  S
C410        C411   1.418       .  A
C410        H415   1.071       .  S
C411        C412   1.412       .  A
C412        H416   1.073       .  S
C417        C418   1.210       .  T
C419        C420   1.409       .  A
C419        C424   1.419       .  A
C419        H425   1.076       .  S
C420        C421   1.417       .  A
C421        C422   1.411       .  A
C421        H426   1.084       .  S
C422        C423   1.426       .  A
C422        H427   1.060       .  S
C423        C424   1.421       .  A
C424        H428   1.078       .  S
C429        C430   1.409       .  A
C429        C434   1.416       .  A
C429        H435   1.075       .  S
C430        C431   1.424       .  A
C431        C432   1.413       .  A
C431        H436   1.083       .  S
C432        C433   1.409       .  A
C432        H437   1.076       .  S
C433        C434   1.415       .  A
C434        H438   1.078       .  S
C439        C440   1.409       .  A
C439        C444   1.416       .  A
C439        H445   1.075       .  S
C440        C441   1.424       .  A
C441        C442   1.413       .  A
C441        H446   1.083       .  S
C442        C443   1.408       .  A
C442        H447   1.077       .  S
C443        C444   1.415       .  A
C444        H448   1.078       .  S
C449        C450   1.409       .  A
C449        C454   1.419       .  A
C449        H455   1.076       .  S
C450        C451   1.417       .  A
C451        C452   1.410       .  A
C451        H456   1.084       .  S
C452        C453   1.425       .  A
C452        H457   1.060       .  S
C453        C454   1.421       .  A
C454        H458   1.078       .  S
C459        C460   1.416       .  A
C459        C464   1.418       .  A
C459        H465   1.082       .  S
C460        C461   1.391       .  A
C461        C462   1.340       .  A
C461        H466   1.073       .  S
C462        C463   1.391       .  A
C462        H467   1.073       .  S
C463        C464   1.416       .  A
C464        H468   1.082       .  S
C469        C470   1.210       .  T
C471        C472   1.411       .  A
C471        C476   1.404       .  A
C471        H477   1.074       .  S
C472        C473   1.418       .  A
C473        C474   1.403       .  A
C473        H478   1.071       .  S
C474        C475   1.411       .  A
C474        H479   1.074       .  S
C475        C476   1.417       .  A
C476        H480   1.072       .  S
C481        C482   1.417       .  A
C481        C486   1.412       .  A
C481        H487   1.084       .  S
C482        C483   1.411       .  A
C483        C484   1.420       .  A
C483        H488   1.076       .  S
C484        C485   1.422       .  A
C484        H489   1.078       .  S
C485        C486   1.428       .  A
C486        H490   1.059       .  S
C491        C492   1.425       .  A
C491        C496   1.413       .  A
C491        H497   1.083       .  S
C492        C493   1.408       .  A
C493        C494   1.413       .  A
C493        H498   1.076       .  S
C494        C495   1.415       .  A
C494        H499   1.078       .  S
C495        C496   1.408       .  A
C496        H500   1.078       .  S
C501        C502   1.213       .  T
C503        C504   1.407       .  A
C503        C508   1.412       .  A
C503        H509   1.075       .  S
C504        C505   1.424       .  A
C505        C506   1.411       .  A
C505        H510   1.083       .  S
C506        C507   1.406       .  A
C506        H511   1.078       .  S
C507        C508   1.413       .  A
C508        H512   1.078       .  S
C513        C514   1.409       .  A
C513        C518   1.420       .  A
C513        H519   1.076       .  S
C514        C515   1.417       .  A
C515        C516   1.411       .  A
C515        H520   1.084       .  S
C516        C517   1.428       .  A
C516        H521   1.059       .  S
C517        C518   1.421       .  A
C518        H522   1.078       .  S
C523        C524   1.392       .  A
C523        C528   1.344       .  A
C523        H529   1.074       .  S
C524        C525   1.417       .  A
C525        C526   1.423       .  A
C525        H530   1.082       .  S
C526        C527   1.417       .  A
C526        H531   1.082       .  S
C527        C528   1.394       .  A
C528        H532   1.075       .  S
C533        C534   1.205       .  T
C535        C536   1.207       .  T
C537        C538   1.198       .  T
C539        C540   1.207       .  T
C541        C542   1.207       .  T
C543        C544   1.211       .  T
C545        C546   1.415       .  A
C545        C550   1.414       .  A
C545        H551   1.078       .  S
C546        C547   1.408       .  A
C547        C548   1.414       .  A
C547        H552   1.078       .  S
C548        C549   1.425       .  A
C548        H553   1.083       .  S
C549        C550   1.408       .  A
C550        H554   1.076       .  S
C555        C556   1.213       .  T
C557        C558   1.411       .  A
C557        C562   1.405       .  A
C557        H563   1.074       .  S
C558        C559   1.418       .  A
C559        C560   1.404       .  A
C559        H564   1.071       .  S
C560        C561   1.411       .  A
C560        H565   1.074       .  S
C561        C562   1.418       .  A
C562        H566   1.071       .  S
C567        C568   1.422       .  A
C567        C572   1.419       .  A
C567        H573   1.078       .  S
C568        C569   1.428       .  A
C569        C570   1.411       .  A
C569        H574   1.059       .  S
C570        C571   1.417       .  A
C570        H575   1.084       .  S
C571        C572   1.409       .  A
C572        H576   1.076       .  S
C577        C578   1.211       .  T
C579        C580   1.391       .  A
C579        C584   1.342       .  A
C579        H585   1.074       .  S
C580        C581   1.417       .  A
C581        C582   1.421       .  A
C581        H586   1.082       .  S
C582        C583   1.416       .  A
C582        H587   1.082       .  S
C583        C584   1.394       .  A
C584        H588   1.074       .  S
C589        C590   1.417       .  A
C589        C594   1.411       .  A
C589        H595   1.084       .  S
C590        C591   1.410       .  A
C591        C592   1.420       .  A
C591        H596   1.076       .  S
C592        C593   1.422       .  A
C592        H597   1.078       .  S
C593        C594   1.428       .  A
C594        H598   1.059       .  S
C599        C600   1.425       .  A
C599        C604   1.413       .  A
C599        H605   1.083       .  S
C600        C601   1.408       .  A
C601        C602   1.414       .  A
C601        H606   1.075       .  S
C602        C603   1.414       .  A
C602        H607   1.078       .  S
C603        C604   1.407       .  A
C604        H608   1.078       .  S
C609        C610   1.206       .  T
C611        C612   1.204       .  T
C613        C614   1.201       .  T
C615        C616   1.206       .  T
C617        C618   1.207       .  T
C619        C620   1.208       .  T
C621        C622   1.205       .  T
C623        C624   1.420       .  A
C623        C628   1.431       .  A
C623        H629   1.078       .  S
C624        C625   1.413       .  A
C625        C626   1.414       .  A
C625        H630   1.082       .  S
C626        C627   1.422       .  A
C626        H631   1.067       .  S
C627        C628   1.428       .  A
C628        H632   1.082       .  S
C633        C634   1.204       .  T
C635        C636   1.428       .  A
C635        C640   1.432       .  A
C635        H641   1.083       .  S
C636        C637   1.423       .  A
C637        C638   1.415       .  A
C637        H642   1.067       .  S
C638        C639   1.414       .  A
C638        H643   1.082       .  S
C639        C640   1.422       .  A
C640        H644   1.078       .  S
C645        C646   1.456       .  A
C645        C650   1.485       .  A
C645        H651   1.081       .  S
C646        C647   1.339       .  A
C647        C648   1.350       .  A
C647        H652   1.040       .  S
C648        C649   1.339       .  A
C648        H653   1.040       .  S
C649        C650   1.456       .  A
C650        H654   1.081       .  S
C655        C656   1.203       .  T
C657        C658   1.339       .  A
C657        C662   1.349       .  A
C657        H663   1.039       .  S
C658        C659   1.455       .  A
C659        C660   1.483       .  A
C659        H664   1.081       .  S
C660        C661   1.454       .  A
C660        H665   1.081       .  S
C661        C662   1.338       .  A
C662        H666   1.039       .  S
C667        C668   1.421       .  A
C667        C672   1.431       .  A
C667        H673   1.078       .  S
C668        C669   1.413       .  A
C669        C670   1.414       .  A
C669        H674   1.082       .  S
C670        C671   1.422       .  A
C670        H675   1.067       .  S
C671        C672   1.428       .  A
C672        H676   1.082       .  S
C677        C678   1.422       .  A
C677        C682   1.413       .  A
C677        H683   1.067       .  S
C678        C679   1.428       .  A
C679        C680   1.430       .  A
C679        H684   1.082       .  S
C680        C681   1.420       .  A
C680        H685   1.078       .  S
C681        C682   1.413       .  A
C682        H686   1.082       .  S
C687        C688   1.203       .  T
C689        C690   1.207       .  T
C691        C692   1.340       .  A
C691        C696   1.352       .  A
C691        H697   1.040       .  S
C692        C693   1.456       .  A
C693        C694   1.486       .  A
C693        H698   1.081       .  S
C694        C695   1.456       .  A
C694        H699   1.081       .  S
C695        C696   1.341       .  A
C696        H700   1.040       .  S
C701        C702   1.204       .  T
C703        C704   1.419       .  A
C703        C708   1.430       .  A
C703        H709   1.079       .  S
C704        C705   1.413       .  A
C705        C706   1.413       .  A
C705        H710   1.082       .  S
C706        C707   1.423       .  A
C706        H711   1.067       .  S
C707        C708   1.428       .  A
C708        H712   1.082       .  S
C713        C714   1.423       .  A
C713        C718   1.414       .  A
C713        H719   1.067       .  S
C714        C715   1.428       .  A
C715        C716   1.431       .  A
C715        H720   1.082       .  S
C716        C717   1.420       .  A
C716        H721   1.078       .  S
C717        C718   1.414       .  A
C718        H722   1.082       .  S
C723        C724   1.204       .  T
C725        C726   1.340       .  A
C725        C730   1.350       .  A
C725        H731   1.041       .  S
C726        C727   1.455       .  A
C727        C728   1.483       .  A
C727        H732   1.081       .  S
C728        C729   1.455       .  A
C728        H733   1.081       .  S
C729        C730   1.340       .  A
C730        H734   1.040       .  S
C735        C736   1.429       .  A
C735        C740   1.433       .  A
C735        H741   1.082       .  S
C736        C737   1.424       .  A
C737        C738   1.415       .  A
C737        H742   1.067       .  S
C738        C739   1.414       .  A
C738        H743   1.081       .  S
C739        C740   1.421       .  A
C740        H744   1.079       .  S
C745        C746   1.413       .  A
C745        C750   1.413       .  A
C745        H751   1.082       .  S
C746        C747   1.420       .  A
C747        C748   1.430       .  A
C747        H752   1.079       .  S
C748        C749   1.428       .  A
C748        H753   1.082       .  S
C749        C750   1.422       .  A
C750        H754   1.067       .  S
C755        C756   1.205       .  T
