geometry optimzed in LAMMPS
_audit_creation_date              2020-11-30 
_audit_creation_method            'lammps2cif' 
_symmetry_space_group_name_H-M    'P1' 
_symmetry_Int_Tables_number       1 
_symmetry_cell_setting            triclinic 
loop_ 
_symmetry_equiv_pos_as_xyz 
  x,y,z 
_cell_length_a                    36.46214051 
_cell_length_b                    40.77811461278218 
_cell_length_c                    36.680137407355296 
_cell_angle_alpha                 89.84722896123104 
_cell_angle_beta                  88.12447452028526 
_cell_angle_gamma                 91.30865131339645 
loop_ 
_atom_site_label 
_atom_site_type_symbol 
_atom_site_fract_x 
_atom_site_fract_y 
_atom_site_fract_z 
_atom_site_charge 
C1          C  0.62047745  0.65549007  0.58936941     0.86400
C2          C  0.65993340  0.64349576  0.59032813    -0.53900
C3          C  0.66285743  0.61239347  0.60337659     0.09300
C4          C  0.62577185  0.59553492  0.61409068     0.20200
C5          C  0.59992669  0.62915234  0.56711106    -0.54600
C6          C  0.60230526  0.59803271  0.58019908     0.09400
C7          C  0.60462609  0.65028675  0.62851850    -0.54100
C8          C  0.60718829  0.61896435  0.64161270     0.10000
H9          H  0.68365732  0.65836692  0.58137168     0.14500
H10         H  0.62820506  0.57000279  0.62416375     0.00200
H11         H  0.58345849  0.63383237  0.54379902     0.14800
H12         H  0.59330437  0.67006903  0.64469639     0.14600
C13         C  0.95604813  0.15981979  0.59890180     0.86400
C14         C  0.96468507  0.15286275  0.63926555    -0.53900
C15         C  0.95754406  0.12105071  0.65004074     0.09300
C16         C  0.94235305  0.09915431  0.61958421     0.20200
C17         C  0.97775288  0.13426371  0.57723500    -0.54600
C18         C  0.97082871  0.10251179  0.58757275     0.09400
C19         C  0.91566383  0.14896693  0.59679037    -0.54100
C20         C  0.90840336  0.11742793  0.60745597     0.10000
H21         H  0.97304119  0.17126673  0.65868031     0.14500
H22         H  0.93598693  0.07344454  0.62806615     0.00200
H23         H  0.99717463  0.14095653  0.55522074     0.14800
H24         H  0.89443919  0.16501989  0.58761986     0.14600
C25         C  0.11335536  0.63818595  0.95077710     0.86400
C26         C  0.10071728  0.63092025  0.91171259    -0.53900
C27         C  0.10472092  0.59915616  0.90056187     0.09300
C28         C  0.12034854  0.57699607  0.93025696     0.20200
C29         C  0.09024401  0.61362351  0.97408477    -0.54600
C30         C  0.09400143  0.58167734  0.96394511     0.09400
C31         C  0.15263732  0.62585607  0.95117902    -0.54100
C32         C  0.15702087  0.59420282  0.93997935     0.10000
H33         H  0.08866411  0.64873406  0.89404991     0.14500
H34         H  0.12350734  0.55129513  0.92137686     0.00200
H35         H  0.07182683  0.62083858  0.99635433     0.14800
H36         H  0.17559837  0.64166122  0.95857009     0.14600
C37         C  0.44767699  0.35062548  0.45969308     0.86400
C38         C  0.45623821  0.35463968  0.41854222    -0.53900
C39         C  0.45174552  0.38554501  0.40517539     0.09300
C40         C  0.43805599  0.40995907  0.43449899     0.20200
C41         C  0.47070527  0.37738586  0.47812741    -0.54600
C42         C  0.46624107  0.40833225  0.46503003     0.09400
C43         C  0.40783451  0.36247019  0.46399744    -0.54100
C44         C  0.40273535  0.39338547  0.45093746     0.10000
H45         H  0.46545054  0.33460119  0.40134579     0.14500
H46         H  0.43404790  0.43513886  0.42403304     0.00200
H47         H  0.48932455  0.37213908  0.49981657     0.14800
H48         H  0.38469176  0.34780528  0.47438718     0.14600
C49         C  0.60385403  0.84812295  0.09380636     0.86400
C50         C  0.59356863  0.85418366  0.13457233    -0.53900
C51         C  0.59775083  0.88614778  0.14581068     0.09300
C52         C  0.61143119  0.90915492  0.11466155     0.20200
C53         C  0.57990502  0.87205051  0.07352544    -0.54600
C54         C  0.58383054  0.90378182  0.08411109     0.09400
C55         C  0.64331990  0.86239288  0.08959507    -0.54100
C56         C  0.64749199  0.89450082  0.10003620     0.10000
H57         H  0.58383955  0.83539443  0.15349778     0.14500
H58         H  0.61534832  0.93461671  0.12339748     0.00200
H59         H  0.56159903  0.86457391  0.05213017     0.14800
H60         H  0.66598812  0.84810956  0.07888583     0.14600
C61         C  0.93377837  0.33312041  0.09293398     0.86400
C62         C  0.89408493  0.34533510  0.09247360    -0.53900
C63         C  0.89006541  0.37722863  0.10198727     0.09300
C64         C  0.92588528  0.39397553  0.11390320     0.20200
C65         C  0.95679809  0.35841738  0.07020541    -0.54600
C66         C  0.95271731  0.39028467  0.08093796     0.09400
C67         C  0.94443912  0.33949610  0.13268259    -0.54100
C68         C  0.94070095  0.37138749  0.14350840     0.10000
H69         H  0.87006086  0.33011794  0.08780645     0.14500
H70         H  0.92241912  0.41973704  0.12288321     0.00200
H71         H  0.97581030  0.35132905  0.04841149     0.14800
H72         H  0.95430026  0.32064402  0.15061594     0.14600
C73         C  0.43932543  0.15035939  0.96246200     0.86400
C74         C  0.40032268  0.13516995  0.96800205    -0.53900
C75         C  0.39699202  0.10388115  0.95523174     0.09300
C76         C  0.43211837  0.09079853  0.93712227     0.20200
C77         C  0.46420257  0.12530848  0.98007522    -0.54600
C78         C  0.46079167  0.09421005  0.96669177     0.09400
C79         C  0.44673709  0.14754770  0.92108978    -0.54100
C80         C  0.44354425  0.11641677  0.90799121     0.10000
H81         H  0.37697342  0.14710217  0.98061227     0.14500
H82         H  0.42895675  0.06557518  0.92611626     0.00200
H83         H  0.48152267  0.13153965  0.00266597     0.14800
H84         H  0.45498742  0.16825196  0.90379195     0.14600
C85         C  0.11467156  0.86030612  0.45138976     0.86400
C86         C  0.15484070  0.87241132  0.45543834    -0.53900
C87         C  0.16254894  0.90311581  0.44179867     0.09300
C88         C  0.12929249  0.91927862  0.42504836     0.20200
C89         C  0.09168450  0.88740465  0.46906308    -0.54600
C90         C  0.09900887  0.91812000  0.45539707     0.09400
C91         C  0.10905649  0.86367001  0.41011165    -0.54100
C92         C  0.11660244  0.89435764  0.39618708     0.10000
H93         H  0.17649418  0.85812428  0.46649326     0.14500
H94         H  0.13517459  0.94438665  0.41429563     0.00200
H95         H  0.07164126  0.88271894  0.49113410     0.14800
H96         H  0.09969616  0.84344670  0.39334999     0.14600
Zr97       Zr  0.96541332  0.01813147  0.99512305     2.17500
O98         O  0.90981766  0.01883959  0.95980418    -0.51400
O99         O  0.95722740  0.07609827  0.00853312    -0.74700
O100        O  0.90916555  0.00623788  0.03123563    -0.81400
O101        O  0.02472542  0.02403962  0.90756672    -0.83200
O102        O  0.92291956  0.98180296  0.08475061    -0.78800
O103        O  0.96724321  0.03276989  0.93043509    -0.90400
O104        O  0.00322280  0.09224567  0.04530174    -0.76400
O105        O  0.98594611  0.02558929  0.05571123    -0.85900
O106        O  0.02559602  0.04194760  0.98897652    -0.85600
O107        O  0.96566937  0.96416140  0.02179857    -0.72300
O108        O  0.00120136  0.98002009  0.96005866    -0.84500
Zr109      Zr  0.08357184  0.95624963  0.04332911     2.26400
Zr110      Zr  0.98797845  0.97190903  0.08221168     2.06300
Zr111      Zr  0.06187580  0.00314887  0.95586714     2.10000
Zr112      Zr  0.04616217  0.04861868  0.04944815     1.78800
O113        O  0.08197551  0.96743324  0.90633917    -0.93300
O114        O  0.03665640  0.06617595  0.11240560    -0.41100
O115        O  0.08205588  0.01000283  0.01651447    -0.77700
O116        O  0.04849196  0.99584586  0.07788023    -0.96400
O117        O  0.02333132  0.93275075  0.04858332    -0.89700
O118        O  0.06367429  0.94936436  0.98224301    -0.92600
C119        C  0.97405284  0.09737433  0.02798809     1.01200
C120        C  0.99157695  0.03330899  0.90426649     1.14100
C121        C  0.90017556  0.99301949  0.06221444     1.04900
O122        O  0.97384359  0.00159338  0.13829049    -0.94700
O123        O  0.02364796  0.95086544  0.13152510    -0.90500
O124        O  0.08167366  0.94434856  0.10906014    -0.83600
C125        C  0.05729155  0.94328016  0.13523408     1.11500
O126        O  0.94910289  0.91510947  0.95161324    -0.96700
Zr127      Zr  0.00273926  0.92704802  0.98775624     1.88900
O128        O  0.09010974  0.89753233  0.02906173    -0.73300
O129        O  0.95741693  0.92093727  0.10212857    -0.52600
O130        O  0.96097273  0.88586122  0.01540412    -0.97300
O131        O  0.01892761  0.90734111  0.92671323    -0.54500
O132        O  0.04010751  0.88081106  0.99858651    -0.73800
C133        C  0.07053114  0.87527357  0.01351920     0.98500
O134        O  0.14391142  0.94480623  0.06673560    -0.62700
O135        O  0.09328989  0.04905099  0.92444328    -0.57500
O136        O  0.14036742  0.97967910  0.01597702    -0.94200
O137        O  0.12710644  0.00793534  0.96466327    -0.92600
O138        O  0.07826935  0.09422613  0.01844932    -0.92900
O139        O  0.10458136  0.06324224  0.07608253    -0.91700
C140        C  0.14938946  0.99804232  0.98842958     1.17300
H141        H  0.02538487  0.06267804  0.97617582     0.33300
H142        H  0.05831492  0.99987546  0.10160228     0.44100
H143        H  0.08005893  0.93539808  0.96850702     0.37700
H144        H  0.94141392  0.95416081  0.02269443     0.34100
H145        H  0.04227764  0.09004952  0.11191128     0.25900
H146        H  0.94276609  0.92696407  0.12420702     0.31900
H147        H  0.97441704  0.87668521  0.03596520     0.37800
H148        H  0.07475029  0.11326631  0.03479180     0.32200
H149        H  0.09527258  0.04250765  0.89849009     0.31100
H150        H  0.07822245  0.98020916  0.88383090     0.32800
H151        H  0.04545876  0.90276681  0.92690291     0.31800
H152        H  0.11634635  0.04196896  0.08025326     0.35800
H153        H  0.14743862  0.96024355  0.08720262     0.28500
H154        H  0.89307122  0.03421603  0.97242553     0.32700
H155        H  0.95065217  0.89166529  0.94486995     0.35600
H156        H  0.07569489  0.06719271  0.92508390     0.28200
H157        H  0.14152875  0.92285335  0.07829279     0.41100
H158        H  0.96080334  0.02130874  0.13045019     0.31100
H159        H  0.00975589  0.06458843  0.11686955     0.38700
H160        H  0.01724239  0.92681845  0.91073152     0.30600
H161        H  0.93896731  0.91630260  0.08350059     0.30600
H162        H  0.89803976  0.99685774  0.96308436     0.30900
Zr163      Zr  0.55823335  0.05709082  0.56657362     2.17500
O164        O  0.59285560  0.10520146  0.58692218    -0.51400
O165        O  0.53558661  0.06287859  0.63012477    -0.74700
O166        O  0.52896766  0.10827554  0.54890246    -0.81400
O167        O  0.64459521  0.00550235  0.57519107    -0.83200
O168        O  0.47910633  0.09529463  0.51603078    -0.78800
O169        O  0.62414585  0.05768685  0.57558050    -0.90400
O170        O  0.49940708  0.01885392  0.64579247    -0.76400
O171        O  0.49647897  0.03715128  0.56921597    -0.85900
O172        O  0.55934211  0.00341881  0.59277000    -0.85600
O173        O  0.54067791  0.05674580  0.50363634    -0.72300
O174        O  0.59603599  0.02491865  0.52610918    -0.84500
Zr175      Zr  0.51399038  0.95027876  0.49299924     2.26400
Zr176      Zr  0.47853099  0.03656061  0.50705406     2.06300
Zr177      Zr  0.59597290  0.97124046  0.55179465     2.10000
Zr178      Zr  0.49762701  0.98308479  0.59423058     1.78800
O179        O  0.65349727  0.95886280  0.51967815    -0.93300
O180        O  0.43387598  0.99327365  0.61176244    -0.41100
O181        O  0.53426148  0.94992085  0.55467919    -0.77700
O182        O  0.47663776  0.98267348  0.53352837    -0.96400
O183        O  0.51468111  0.00369901  0.46636007    -0.89700
O184        O  0.57648989  0.96896453  0.49025289    -0.92600
C185        C  0.51464772  0.04651224  0.65286868     1.01200
C186        C  0.64942439  0.03653743  0.57872584     1.14100
C187        C  0.50069159  0.11615995  0.53097980     1.04900
O188        O  0.42050835  0.05263543  0.53566162    -0.94700
O189        O  0.43021576  0.00445558  0.48019831    -0.90500
O190        O  0.45116164  0.95297258  0.47127241    -0.83600
C191        C  0.42609536  0.97469802  0.46975710     1.11500
O192        O  0.61534649  0.07158987  0.45410199    -0.96700
Zr193      Zr  0.57698198  0.02243110  0.46442037     1.88900
O194        O  0.53527636  0.94220493  0.43020704    -0.73300
O195        O  0.46671806  0.06117340  0.44814733    -0.52600
O196        O  0.55618508  0.05568629  0.41415304    -0.97300
O197        O  0.64109837  0.01020803  0.45053716    -0.54500
O198        O  0.57316644  0.98493878  0.41331992    -0.73800
C199        C  0.55632346  0.95766894  0.40696322     0.98500
O200        O  0.47536070  0.90106238  0.48693853    -0.62700
O201        O  0.61313102  0.94588838  0.60877674    -0.57500
O202        O  0.54530171  0.89980827  0.50898323    -0.94200
O203        O  0.59506009  0.91283697  0.54217921    -0.92600
O204        O  0.52019913  0.94813214  0.64220511    -0.92900
O205        O  0.46044214  0.93311813  0.60284806    -0.91700
C206        C  0.57409699  0.89216293  0.52627675     1.17300
H207        H  0.56956149  0.00388921  0.61674017     0.33300
H208        H  0.45182179  0.97397366  0.53549482     0.44100
H209        H  0.59162161  0.95421810  0.47611674     0.37700
H210        H  0.54270874  0.07823049  0.49258616     0.34100
H211        H  0.43167395  0.98744318  0.63798322     0.25900
H212        H  0.44534004  0.07527004  0.45286646     0.31900
H213        H  0.53530852  0.04304046  0.40419225     0.37800
H214        H  0.53426569  0.96297775  0.65817231     0.32200
H215        H  0.59266731  0.93030771  0.61508783     0.31100
H216        H  0.67048105  0.95304292  0.53906613     0.32800
H217        H  0.64141339  0.98638650  0.44546673     0.31800
H218        H  0.46087453  0.92251680  0.57858444     0.35800
H219        H  0.48931041  0.88620353  0.47060865     0.28500
H220        H  0.57679682  0.11578076  0.60546702     0.32700
H221        H  0.62524561  0.06995741  0.42872131     0.35600
H222        H  0.63400204  0.93179409  0.60193354     0.28200
H223        H  0.47475234  0.89028343  0.51118403     0.41100
H224        H  0.42699693  0.06098576  0.55999711     0.31100
H225        H  0.43192690  0.01744379  0.61126328     0.38700
H226        H  0.65341970  0.01268959  0.47405981     0.30600
H227        H  0.48752560  0.07680608  0.44349354     0.30600
H228        H  0.59432638  0.12067515  0.56604608     0.30900
Zr229      Zr  0.55130561  0.44598871  0.05779396     2.17500
O230        O  0.57912481  0.39219051  0.06082573    -0.51400
O231        O  0.53277093  0.43700520  0.12171781    -0.74700
O232        O  0.61479860  0.44890089  0.07725258    -0.81400
O233        O  0.46673468  0.40836742  0.01343656    -0.83200
O234        O  0.63726998  0.50096388  0.06973015    -0.78800
O235        O  0.51870524  0.39550644  0.04175587    -0.90400
O236        O  0.50256143  0.48213064  0.14114978    -0.76400
O237        O  0.55494553  0.49929555  0.08398639    -0.85900
O238        O  0.48984094  0.46430113  0.06356710    -0.85600
O239        O  0.58890255  0.47851015  0.01549466    -0.72300
O240        O  0.52850880  0.44666283  0.99716446    -0.84500
Zr241      Zr  0.50770012  0.55254285  0.98614138     2.26400
Zr242      Zr  0.59060673  0.53254386  0.04135057     2.06300
Zr243      Zr  0.46755506  0.46674543  0.00299516     2.10000
Zr244      Zr  0.49363519  0.51761102  0.08903450     1.78800
O245        O  0.45150563  0.43784764  0.94756682    -0.93300
O246        O  0.51891282  0.55382240  0.13505086    -0.41100
O247        O  0.47012374  0.52051205  0.02873484    -0.77700
O248        O  0.52926201  0.55188113  0.04754783    -0.96400
O249        O  0.56892338  0.53372081  0.98058986    -0.89700
O250        O  0.50385852  0.49908992  0.96049962    -0.92600
C251        C  0.51648860  0.45399382  0.14654393     1.01200
C252        C  0.48843468  0.38757023  0.02665691     1.14100
C253        C  0.64045639  0.47090221  0.07926341     1.04900
O254        O  0.60789098  0.56077436  0.09684966    -0.94700
O255        O  0.59237410  0.59119285  0.02900362    -0.90500
O256        O  0.54289699  0.60324741  0.99613724    -0.83600
C257        C  0.57218552  0.61165245  0.01276852     1.11500
O258        O  0.60576529  0.43372254  0.94765799    -0.96700
Zr259      Zr  0.56503354  0.47997076  0.95569889     1.88900
O260        O  0.52567770  0.55877541  0.92144633    -0.73300
O261        O  0.64844512  0.54535616  0.00870443    -0.52600
O262        O  0.62588888  0.49856642  0.93392706    -0.97300
O263        O  0.54171086  0.44156588  0.91071229    -0.54500
O264        O  0.55621652  0.51353136  0.90269863    -0.73800
C265        C  0.54212199  0.54144181  0.89690935     0.98500
O266        O  0.47923492  0.60613256  0.98525761    -0.62700
O267        O  0.40901383  0.45622159  0.03540639    -0.57500
O268        O  0.44349047  0.55035294  0.96834047    -0.94200
O269        O  0.42079491  0.49822533  0.97449204    -0.92600
O270        O  0.43142624  0.50112436  0.10852236    -0.92900
O271        O  0.45500826  0.56403419  0.10347015    -0.91700
C272        C  0.41780326  0.52842809  0.96555059     1.17300
H273        H  0.47480158  0.44959782  0.07873960     0.33300
H274        H  0.52913270  0.57369328  0.05771388     0.44100
H275        H  0.49235477  0.49935381  0.93714909     0.37700
H276        H  0.61329463  0.46993443  0.01280053     0.34100
H277        H  0.50410326  0.54885601  0.15758177     0.25900
H278        H  0.66561800  0.55182968  0.02791318     0.31900
H279        H  0.62606388  0.49536989  0.90717077     0.37800
H280        H  0.43037143  0.50485789  0.13519776     0.32200
H281        H  0.39330458  0.44547682  0.01721783     0.31100
H282        H  0.42484017  0.43310520  0.95053157     0.32800
H283        H  0.51768773  0.45025924  0.90411806     0.31800
H284        H  0.45410896  0.57639645  0.08025721     0.35800
H285        H  0.46935712  0.60862483  0.96059650     0.28500
H286        H  0.58501375  0.38898638  0.08672888     0.32700
H287        H  0.61344851  0.43390675  0.92151428     0.35600
H288        H  0.41374058  0.43867696  0.05323692     0.28200
H289        H  0.45742674  0.60426397  0.00201545     0.41100
H290        H  0.58943581  0.57800187  0.10047643     0.31100
H291        H  0.54333145  0.54491560  0.13979270     0.38700
H292        H  0.53537073  0.42131351  0.92471553     0.30600
H293        H  0.65730788  0.52393546  0.99986048     0.30600
H294        H  0.60314864  0.39420209  0.04752956     0.30900
Zr295      Zr  0.01072624  0.55841383  0.55275676     2.17500
O296        O  0.98414420  0.61187311  0.56486507    -0.51400
O297        O  0.03275448  0.56259666  0.61579753    -0.74700
O298        O  0.94688134  0.55487960  0.57692946    -0.81400
O299        O  0.08689405  0.60043898  0.49243283    -0.83200
O300        O  0.92404105  0.50353038  0.56810077    -0.78800
O301        O  0.03952960  0.61036803  0.53239403    -0.90400
O302        O  0.06725825  0.51847520  0.62639803    -0.76400
O303        O  0.00888875  0.50386852  0.57602689    -0.85900
O304        O  0.07270710  0.54067055  0.54952210    -0.85600
O305        O  0.97198432  0.52783659  0.51202689    -0.72300
O306        O  0.03018552  0.55995200  0.48929192    -0.84500
Zr307      Zr  0.05100653  0.45470622  0.47116708     2.26400
Zr308      Zr  0.97087225  0.47295178  0.53580856     2.06300
Zr309      Zr  0.09173719  0.54120360  0.48622554     2.10000
Zr310      Zr  0.07061798  0.48596856  0.57222657     1.78800
O311        O  0.10991450  0.56348378  0.42653141    -0.93300
O312        O  0.04981310  0.44900588  0.62134257    -0.41100
O313        O  0.08991161  0.48657116  0.50968353    -0.77700
O314        O  0.03233316  0.45317982  0.53481354    -0.96400
O315        O  0.98968880  0.47354541  0.47267361    -0.89700
O316        O  0.05429255  0.50902549  0.44652978    -0.92600
C317        C  0.05250048  0.54515987  0.63664007     1.01200
C318        C  0.06582253  0.61997480  0.51032978     1.14100
C319        C  0.92078287  0.53302905  0.57940553     1.04900
O320        O  0.95167581  0.44434171  0.59180669    -0.94700
O321        O  0.97023855  0.41416620  0.52628060    -0.90500
O322        O  0.01982909  0.40308638  0.49000251    -0.83600
C323        C  0.99145839  0.39405883  0.50967142     1.11500
O324        O  0.95676294  0.57728260  0.44327584    -0.96700
Zr325      Zr  0.99308204  0.52818075  0.44931160     1.88900
O326        O  0.02904042  0.44981854  0.40893681    -0.73300
O327        O  0.91406706  0.46081716  0.50487967    -0.52600
O328        O  0.92939941  0.51719701  0.43420837    -0.97300
O329        O  0.01948233  0.56549455  0.40287665    -0.54500
O330        O  0.99451004  0.49350232  0.39563430    -0.73800
C331        C  0.00917379  0.46613430  0.38728661     0.98500
O332        O  0.08269196  0.40629378  0.44869850    -0.62700
O333        O  0.14770678  0.56110367  0.51412170    -0.57500
O334        O  0.11735640  0.45508076  0.45920091    -0.94200
O335        O  0.14130843  0.50684790  0.46360803    -0.92600
O336        O  0.13464073  0.50032362  0.58249092    -0.92900
O337        O  0.10850369  0.43788391  0.57758157    -0.91700
C338        C  0.14431541  0.47600986  0.45733553     1.17300
H339        H  0.08852229  0.55475533  0.56356353     0.33300
H340        H  0.03363414  0.43161192  0.54546226     0.44100
H341        H  0.06465991  0.50903539  0.42196043     0.37700
H342        H  0.94762193  0.53659057  0.51195782     0.34100
H343        H  0.06765029  0.45251321  0.64082457     0.25900
H344        H  0.89801428  0.44960925  0.52354563     0.31900
H345        H  0.92662301  0.49299192  0.43449371     0.37800
H346        H  0.13759285  0.49689314  0.60895838     0.32200
H347        H  0.15925678  0.54120633  0.52359558     0.31100
H348        H  0.13499334  0.57265815  0.42959221     0.32800
H349        H  0.03418866  0.58169910  0.41658371     0.31800
H350        H  0.11606152  0.43254594  0.55214662     0.35800
H351        H  0.08773566  0.39311300  0.47062725     0.28500
H352        H  0.97529751  0.61132646  0.59067176     0.32700
H353        H  0.95033467  0.57831780  0.41727641     0.35600
H354        H  0.16400467  0.56834631  0.49338343     0.28200
H355        H  0.06425146  0.39319303  0.43543223     0.41100
H356        H  0.97323413  0.43153921  0.59843266     0.31100
H357        H  0.02686454  0.45862000  0.63118842     0.38700
H358        H  0.03786385  0.55264994  0.38896634     0.30600
H359        H  0.90277154  0.48241107  0.50143931     0.30600
H360        H  0.96168175  0.61250302  0.55042645     0.30900
C361        C  0.38890122  0.96425089  0.45848550    -0.12100
C362        C  0.36324344  0.98685181  0.44576723     0.03400
C363        C  0.32646895  0.97715710  0.44253273    -0.12600
C364        C  0.31452248  0.94507096  0.45104271     0.18200
C365        C  0.34058489  0.92177863  0.46056857    -0.09700
C366        C  0.37723591  0.93154677  0.46461442    -0.02600
H367        H  0.30690419  0.99494690  0.43383182     0.04800
C368        C  0.27488775  0.93652009  0.44938732     0.20200
H369        H  0.39638353  0.91360388  0.47377926     0.09900
C370        C  0.25713415  0.93996450  0.41627889    -0.16000
C371        C  0.21997776  0.93117110  0.41332969     0.02900
C372        C  0.20003709  0.91809911  0.44394580    -0.11300
C373        C  0.21747462  0.91644939  0.47748489    -0.01300
C374        C  0.25426392  0.92598344  0.48055808    -0.06500
H375        H  0.27250504  0.94897254  0.39237821     0.06000
H376        H  0.20234104  0.90745265  0.50153246     0.09300
Br377      Br  0.32784380  0.87621373  0.46769533    -0.06200
Br378      Br  0.37631175  0.03102721  0.43127353    -0.03100
Br379      Br  0.19950381  0.93610752  0.36625623    -0.00300
Br380      Br  0.27442131  0.92535144  0.52826486    -0.04700
C381        C  0.07171810  0.65601225  0.50500833    -0.12100
C382        C  0.08476828  0.66970301  0.47134807     0.03400
C383        C  0.08949704  0.70369664  0.46758088    -0.12600
C384        C  0.08126916  0.72485654  0.49652419     0.18200
C385        C  0.06770679  0.71160575  0.52989368    -0.09700
C386        C  0.06301378  0.67750268  0.53391104    -0.02600
H387        H  0.09951250  0.71380075  0.44166921     0.04800
C388        C  0.08751600  0.76054885  0.49066474     0.20200
H389        H  0.05268269  0.66775984  0.55986256     0.09900
C390        C  0.06179495  0.77843099  0.47189073    -0.16000
C391        C  0.06943406  0.81083660  0.46061015     0.02900
C392        C  0.10423662  0.82592371  0.46688997    -0.11300
C393        C  0.12867504  0.80822704  0.48834931    -0.01300
C394        C  0.12066796  0.77601578  0.49985391    -0.06500
H395        H  0.03585758  0.76680479  0.46523001     0.06000
H396        H  0.15427543  0.81879513  0.49685827     0.09300
Br397      Br  0.05498954  0.73916333  0.57041830    -0.06200
Br398      Br  0.09430206  0.64416075  0.42833504    -0.03100
Br399      Br  0.03074227  0.83237917  0.43637813    -0.00300
Br400      Br  0.15651491  0.75353494  0.52710378    -0.04700
C401        C  0.06909814  0.93445228  0.17245741    -0.12100
C402        C  0.04462433  0.91976046  0.19880050     0.03400
C403        C  0.05586483  0.91469714  0.23443281    -0.12600
C404        C  0.09131922  0.92365556  0.24475059     0.18200
C405        C  0.11629981  0.93719702  0.21849122    -0.09700
C406        C  0.10514216  0.94248073  0.18271110    -0.02600
H407        H  0.03674856  0.90361878  0.25435596     0.04800
C408        C  0.10121971  0.91833060  0.28314344     0.20200
H409        H  0.12445461  0.95378378  0.16314948     0.09900
C410        C  0.12177288  0.89101660  0.29211788    -0.16000
C411        C  0.12799486  0.88324442  0.32860477     0.02900
C412        C  0.11283803  0.90270073  0.35696342    -0.11300
C413        C  0.09370592  0.93087202  0.34775298    -0.01300
C414        C  0.08789998  0.93877371  0.31122761    -0.06500
H415        H  0.13269000  0.87548984  0.27063430     0.06000
H416        H  0.08253849  0.94643662  0.36907387     0.09300
Br417      Br  0.16528815  0.94999730  0.23082221    -0.06200
Br418      Br  0.99600689  0.90444499  0.18796416    -0.03100
Br419      Br  0.15940133  0.84715177  0.33769110    -0.00300
Br420      Br  0.06171802  0.97776587  0.30075112    -0.04700
C421        C  0.47867421  0.35206365  0.02324827    -0.12100
C422        C  0.44676283  0.34052800  0.00556447     0.03400
C423        C  0.44127334  0.30701301  0.99989999    -0.12600
C424        C  0.46588915  0.28415146  0.01256079     0.18200
C425        C  0.49660917  0.29515178  0.03166612    -0.09700
C426        C  0.50287401  0.32874721  0.03665071    -0.02600
H427        H  0.41762561  0.29865666  0.98504106     0.04800
C428        C  0.45995528  0.24929067  0.00320019     0.20200
H429        H  0.52712412  0.33652097  0.05086170     0.09900
C430        C  0.48644597  0.23364269  0.98153202    -0.16000
C431        C  0.48066493  0.20164507  0.96931590     0.02900
C432        C  0.44665024  0.18491155  0.97712757    -0.11300
C433        C  0.42075035  0.20058813  0.00019494    -0.01300
C434        C  0.42721832  0.23226968  0.01321378    -0.06500
H435        H  0.51180975  0.24657873  0.97376318     0.06000
H436        H  0.39557678  0.18848508  0.00936729     0.09300
Br437      Br  0.53043678  0.26531417  0.05206624    -0.06200
Br438      Br  0.40866642  0.36780870  0.98813322    -0.03100
Br439      Br  0.52118284  0.18286352  0.94244072    -0.00300
Br440      Br  0.39094417  0.25080158  0.04573234    -0.04700
C441        C  0.50597444  0.05999172  0.68964186    -0.12100
C442        C  0.53114921  0.07899598  0.70967224     0.03400
C443        C  0.52122055  0.08964319  0.74493570    -0.12600
C444        C  0.48688459  0.08092908  0.76102032     0.18200
C445        C  0.46216644  0.06148105  0.74144677    -0.09700
C446        C  0.47155094  0.05162257  0.70606977    -0.02600
H447        H  0.54069175  0.10403824  0.76026628     0.04800
C448        C  0.47733213  0.09115274  0.79867990     0.20200
H449        H  0.45187785  0.03672627  0.69154902     0.09900
C450        C  0.45043602  0.11482428  0.80451009    -0.16000
C451        C  0.43854896  0.12309434  0.83988755     0.02900
C452        C  0.45396967  0.10773646  0.87005617    -0.11300
C453        C  0.48067649  0.08394673  0.86417490    -0.01300
C454        C  0.49244504  0.07562148  0.82883033    -0.06500
H455        H  0.43804893  0.12629751  0.78140094     0.06000
H456        H  0.49262705  0.07194558  0.88720533     0.09300
Br457      Br  0.41623214  0.04589171  0.76287743    -0.06200
Br458      Br  0.58042389  0.08840761  0.69209490    -0.03100
Br459      Br  0.39932606  0.15347836  0.84542585    -0.00300
Br460      Br  0.52810135  0.04201987  0.82301107    -0.04700
C461        C  0.18731984  0.01059561  0.98495583    -0.12100
C462        C  0.19471484  0.04455636  0.98098408     0.03400
C463        C  0.23078437  0.05609673  0.97675998    -0.12600
C464        C  0.25982967  0.03434824  0.97633745     0.18200
C465        C  0.25277319  0.00053320  0.98105881    -0.09700
C466        C  0.21652466  0.98883566  0.98562544    -0.02600
H467        H  0.23627665  0.08221286  0.97367222     0.04800
C468        C  0.29711059  0.04806449  0.97071968     0.20200
H469        H  0.21108619  0.96274617  0.98891979     0.09900
C470        C  0.31621615  0.05891843  0.00103721    -0.16000
C471        C  0.34924657  0.07660585  0.99640981     0.02900
C472        C  0.36334943  0.08368366  0.96095081    -0.11300
C473        C  0.34494391  0.07167687  0.93063800    -0.01300
C474        C  0.31170982  0.05418193  0.93533509    -0.06500
H475        H  0.30488989  0.05434402  0.02830648     0.06000
H476        H  0.35581235  0.07686916  0.90332945     0.09300
Br477      Br  0.29168265  0.96974372  0.98063492    -0.06200
Br478      Br  0.15705722  0.07665176  0.98294360    -0.03100
Br479      Br  0.37428985  0.09006368  0.03931530    -0.00300
Br480      Br  0.28611209  0.04034899  0.89295692    -0.04700
C481        C  0.00165201  0.45176830  0.35082150    -0.12100
C482        C  0.99662089  0.47135994  0.31948608     0.03400
C483        C  0.98725869  0.45663073  0.28644739    -0.12600
C484        C  0.98254621  0.42254386  0.28370872     0.18200
C485        C  0.98825182  0.40287767  0.31448438    -0.09700
C486        C  0.99789809  0.41745526  0.34753277    -0.02600
H487        H  0.98340825  0.47190350  0.26271884     0.04800
C488        C  0.97148448  0.40814090  0.24849838     0.20200
H489        H  0.00149170  0.40187022  0.37105258     0.09900
C490        C  0.99853805  0.40040976  0.22205430    -0.16000
C491        C  0.98888734  0.38814991  0.18792644     0.02900
C492        C  0.95163479  0.38344847  0.17977253    -0.11300
C493        C  0.92454924  0.39114999  0.20622484    -0.01300
C494        C  0.93422845  0.40333702  0.24042924    -0.06500
H495        H  0.02725013  0.40431186  0.22784692     0.06000
H496        H  0.89583530  0.38759834  0.20030868     0.09300
Br497      Br  0.98229889  0.35607556  0.31271697    -0.06200
Br498      Br  0.00356258  0.51817185  0.31917252    -0.03100
Br499      Br  0.02749332  0.37959396  0.15275468    -0.00300
Br500      Br  0.89585671  0.41342458  0.27532604    -0.04700
C501        C  0.85398082  0.39330579  0.10115410    -0.12100
C502        C  0.83059277  0.38932521  0.07129001     0.03400
C503        C  0.79637861  0.40394440  0.07209601    -0.12600
C504        C  0.78459704  0.42242585  0.10213438     0.18200
C505        C  0.80748962  0.42629794  0.13198625    -0.09700
C506        C  0.84213395  0.41210562  0.13113936    -0.02600
H507        H  0.77881259  0.40104003  0.04899126     0.04800
C508        C  0.74845552  0.43775651  0.10093275     0.20200
H509        H  0.85950558  0.41521631  0.15430077     0.09900
C510        C  0.71805758  0.42270250  0.11901513    -0.16000
C511        C  0.68256878  0.43398666  0.11400455     0.02900
C512        C  0.67723595  0.46066860  0.09020715    -0.11300
C513        C  0.70815428  0.47664013  0.07372247    -0.01300
C514        C  0.74343979  0.46534290  0.07880040    -0.06500
H515        H  0.72188978  0.40156406  0.13632175     0.06000
H516        H  0.70486127  0.49717887  0.05541142     0.09300
Br517      Br  0.79239882  0.45067078  0.17425630    -0.06200
Br518      Br  0.84380140  0.36572147  0.02762345    -0.03100
Br519      Br  0.64296251  0.41245674  0.14106912    -0.00300
Br520      Br  0.78392048  0.48759674  0.05386414    -0.04700
C521        C  0.93911695  0.29783099  0.07908952    -0.12100
C522        C  0.97294838  0.28159542  0.08226735     0.03400
C523        C  0.97650216  0.24919072  0.07019374    -0.12600
C524        C  0.94729276  0.23250293  0.05403933     0.18200
C525        C  0.91462592  0.24879562  0.04859643    -0.09700
C526        C  0.91094857  0.28106597  0.06034102    -0.02600
H527        H  0.00214272  0.23680986  0.07367035     0.04800
C528        C  0.95063848  0.19763000  0.04443633     0.20200
H529        H  0.88593557  0.29263653  0.05330585     0.09900
C530        C  0.93502153  0.17389787  0.06831735    -0.16000
C531        C  0.93975000  0.14053591  0.06160913     0.02900
C532        C  0.96018098  0.13067067  0.03055728    -0.11300
C533        C  0.97417761  0.15432052  0.00567138    -0.01300
C534        C  0.96944650  0.18772842  0.01236810    -0.06500
H535        H  0.92005926  0.18141686  0.09278415     0.06000
H536        H  0.99036531  0.14684281  0.98194815     0.09300
Br537      Br  0.87435895  0.22787483  0.02461550    -0.06200
Br538      Br  0.01602758  0.30202464  0.10165155    -0.03100
Br539      Br  0.91962949  0.10928421  0.09641362    -0.00300
Br540      Br  0.98990535  0.21894473  0.97772910    -0.04700
C541        C  0.56449200  0.93028646  0.06594497    -0.12100
C542        C  0.52975959  0.94039961  0.07851495     0.03400
C543        C  0.51342500  0.96698931  0.06179957    -0.12600
C544        C  0.52998011  0.98222217  0.03078290     0.18200
C545        C  0.56361357  0.97026018  0.01666301    -0.09700
C546        C  0.58041148  0.94444779  0.03426913    -0.02600
H547        H  0.48741447  0.97550038  0.07277695     0.04800
C548        C  0.51200767  0.01053559  0.01382971     0.20200
H549        H  0.60617244  0.93538272  0.02323393     0.09900
C550        C  0.53200681  0.04009868  0.00869428    -0.16000
C551        C  0.51659368  0.06705275  0.99189738     0.02900
C552        C  0.47942717  0.06564532  0.98228888    -0.11300
C553        C  0.45922338  0.03621724  0.98790249    -0.01300
C554        C  0.47532156  0.00863560  0.00274642    -0.06500
H555        H  0.56020804  0.04198705  0.01701129     0.06000
H556        H  0.43068919  0.03450714  0.98065331     0.09300
Br557      Br  0.58729175  0.98709120  0.97271235    -0.06200
Br558      Br  0.50237745  0.91692062  0.11620491    -0.03100
Br559      Br  0.54900250  0.10343021  0.97962746    -0.00300
Br560      Br  0.44642430  0.96866777  0.00512061    -0.04700
C561        C  0.56227427  0.94306560  0.37041446    -0.12100
C562        C  0.53334177  0.92876160  0.35071801     0.03400
C563        C  0.54013231  0.91751454  0.31512070    -0.12600
C564        C  0.57550229  0.91964069  0.29898451     0.18200
C565        C  0.60456847  0.93268528  0.31904047    -0.09700
C566        C  0.59777780  0.94450800  0.35429173    -0.02600
H567        H  0.51760517  0.90766663  0.29966309     0.04800
C568        C  0.58108412  0.91077651  0.26022675     0.20200
H569        H  0.62037258  0.95501590  0.36915656     0.09900
C570        C  0.57305010  0.93379727  0.23357432    -0.16000
C571        C  0.57850506  0.92713274  0.19640846     0.02900
C572        C  0.59209333  0.89616386  0.18507038    -0.11300
C573        C  0.60071165  0.87345112  0.21251838    -0.01300
C574        C  0.59515328  0.88044674  0.24958860    -0.06500
H575        H  0.56250351  0.95736284  0.24189806     0.06000
H576        H  0.61237149  0.85008142  0.20533444     0.09300
Br577      Br  0.65376017  0.93559499  0.29889070    -0.06200
Br578      Br  0.48362962  0.92607100  0.36971803    -0.03100
Br579      Br  0.56527296  0.96218060  0.16476593    -0.00300
Br580      Br  0.60715207  0.84795957  0.28490262    -0.04700
C581        C  0.59993775  0.81291283  0.07867681    -0.12100
C582        C  0.60929148  0.80593841  0.04149333     0.03400
C583        C  0.60517051  0.77403643  0.02776182    -0.12600
C584        C  0.59170643  0.74831739  0.05000069     0.18200
C585        C  0.58201247  0.75477811  0.08659914    -0.09700
C586        C  0.58609565  0.78653326  0.10058916    -0.02600
H587        H  0.61271802  0.76920494  0.99950120     0.04800
C588        C  0.58907639  0.71456557  0.03522100     0.20200
H589        H  0.57792379  0.78975274  0.12873700     0.09900
C590        C  0.61696138  0.69259125  0.04218159    -0.16000
C591        C  0.61384001  0.65953342  0.03215369     0.02900
C592        C  0.58131886  0.64749322  0.01601804    -0.11300
C593        C  0.55480273  0.67042147  0.00652471    -0.01300
C594        C  0.55862751  0.70362702  0.01570353    -0.06500
H595        H  0.64115777  0.70117493  0.05600881     0.06000
H596        H  0.53008946  0.66243204  0.99322863     0.09300
Br597      Br  0.56255795  0.72079881  0.11853719    -0.06200
Br598      Br  0.62788817  0.83855467  0.00724354    -0.03100
Br599      Br  0.65570186  0.63310206  0.04075813    -0.00300
Br600      Br  0.52078340  0.73287024  0.00251155    -0.04700
C601        C  0.68399957  0.91240245  0.09896782    -0.12100
C602        C  0.68860860  0.94616483  0.08953150     0.03400
C603        C  0.72367135  0.96065271  0.08721295    -0.12600
C604        C  0.75473945  0.94258891  0.09380963     0.18200
C605        C  0.75071432  0.90958159  0.10444007    -0.09700
C606        C  0.71564534  0.89482716  0.10712595    -0.02600
H607        H  0.72693840  0.98607764  0.07875327     0.04800
C608        C  0.79105399  0.95792231  0.08569328     0.20200
H609        H  0.71325797  0.86933462  0.11536881     0.09900
C610        C  0.81088260  0.97264554  0.11363726    -0.16000
C611        C  0.84572190  0.98677069  0.10621882     0.02900
C612        C  0.86096836  0.98612769  0.07037377    -0.11300
C613        C  0.84003416  0.97300780  0.04224834    -0.01300
C614        C  0.80542916  0.95889137  0.04967053    -0.06500
H615        H  0.79937486  0.97285841  0.14123819     0.06000
H616        H  0.85145640  0.97197242  0.01463961     0.09300
Br617      Br  0.79254665  0.88361826  0.11412057    -0.06200
Br618      Br  0.65035634  0.97473098  0.07609474    -0.03100
Br619      Br  0.87091305  0.00732578  0.14553408    -0.00300
Br620      Br  0.77951240  0.93975967  0.00998184    -0.04700
C621        C  0.49349856  0.15137972  0.52431327    -0.12100
C622        C  0.50193311  0.17661558  0.54929077     0.03400
C623        C  0.49481229  0.20936392  0.54058909    -0.12600
C624        C  0.47949009  0.21750369  0.50727617     0.18200
C625        C  0.47135548  0.19256155  0.48230910    -0.09700
C626        C  0.47817342  0.15995785  0.49094383    -0.02600
H627        H  0.50101361  0.22855045  0.55996272     0.04800
C628        C  0.47201861  0.25204389  0.49851922     0.20200
H629        H  0.47193077  0.14122751  0.47104337     0.09900
C630        C  0.49889966  0.27100763  0.47977000    -0.16000
C631        C  0.49168118  0.30281254  0.46798296     0.02900
C632        C  0.45627488  0.31621094  0.47401990    -0.11300
C633        C  0.42995292  0.29710684  0.49440359    -0.01300
C634        C  0.43764993  0.26549861  0.50655784    -0.06500
H635        H  0.52561908  0.26080194  0.47387818     0.06000
H636        H  0.40328690  0.30625019  0.50176785     0.09300
Br637      Br  0.45118524  0.20204888  0.43585411    -0.06200
Br638      Br  0.52123484  0.16809128  0.59630311    -0.03100
Br639      Br  0.53205637  0.32617111  0.44385113    -0.00300
Br640      Br  0.40037295  0.24128777  0.53407114    -0.04700
C641        C  0.36534435  0.40678270  0.44833861    -0.12100
C642        C  0.35517702  0.43636265  0.46518508     0.03400
C643        C  0.31892153  0.44691509  0.46342264    -0.12600
C644        C  0.29244599  0.42845118  0.44489864     0.18200
C645        C  0.30292634  0.39944142  0.42705276    -0.09700
C646        C  0.33892876  0.38865860  0.42929468    -0.02600
H647        H  0.31110089  0.46922913  0.47731627     0.04800
C648        C  0.25386821  0.43926607  0.44581607     0.20200
H649        H  0.34651084  0.36609772  0.41576314     0.09900
C650        C  0.24467753  0.46772072  0.42686168    -0.16000
C651        C  0.20891658  0.47973323  0.42918774     0.02900
C652        C  0.18158406  0.46304116  0.45070353    -0.11300
C653        C  0.19073631  0.43411361  0.46887195    -0.01300
C654        C  0.22649811  0.42242441  0.46695456    -0.06500
H655        H  0.26552317  0.48079303  0.41045889     0.06000
H656        H  0.17031938  0.42125503  0.48602052     0.09300
Br657      Br  0.26926494  0.37405964  0.39880078    -0.06200
Br658      Br  0.38887466  0.46191556  0.49308469    -0.03100
Br659      Br  0.19876094  0.51833520  0.40160233    -0.00300
Br660      Br  0.23714923  0.38471918  0.49587304    -0.04700
C661        C  0.51287854  0.44045151  0.18401601    -0.12100
C662        C  0.52372945  0.45921140  0.21420971     0.03400
C663        C  0.51484775  0.44835998  0.24970220    -0.12600
C664        C  0.49613344  0.41837318  0.25582556     0.18200
C665        C  0.48793098  0.39827814  0.22584868    -0.09700
C666        C  0.49603018  0.40949533  0.19017951    -0.02600
H667        H  0.52244083  0.46343948  0.27265711     0.04800
C668        C  0.48461155  0.40908711  0.29363537     0.20200
H669        H  0.48822114  0.39445830  0.16726900     0.09900
C670        C  0.45004425  0.41833632  0.30736809    -0.16000
C671        C  0.43869124  0.41121552  0.34348237     0.02900
C672        C  0.46210121  0.39421925  0.36656723    -0.11300
C673        C  0.49665704  0.38479986  0.35244388    -0.01300
C674        C  0.50808507  0.39237343  0.31652118    -0.06500
H675        H  0.43182585  0.43127242  0.28985873     0.06000
H676        H  0.51522917  0.37203580  0.36971949     0.09300
Br677      Br  0.46581159  0.35548855  0.23265703    -0.06200
Br678      Br  0.55250425  0.49893696  0.20832024    -0.03100
Br679      Br  0.39032775  0.42397678  0.35849410    -0.00300
Br680      Br  0.55613424  0.37991096  0.29983749    -0.04700
C681        C  0.07281819  0.55480666  0.98298400    -0.12100
C682        C  0.03457901  0.55082545  0.97947485     0.03400
C683        C  0.01562873  0.52479094  0.99733626    -0.12600
C684        C  0.03415312  0.50253304  0.01906543     0.18200
C685        C  0.07222786  0.50707162  0.02324450    -0.09700
C686        C  0.09085479  0.53364914  0.00620513    -0.02600
H687        H  0.98634362  0.52168977  0.99398457     0.04800
C688        C  0.01358943  0.47392502  0.03539915     0.20200
H689        H  0.11953945  0.53792051  0.01132804     0.09900
C690        C  0.99847938  0.45032338  0.01216151    -0.16000
C691        C  0.97867139  0.42295641  0.02608077     0.02900
C692        C  0.97379316  0.41865180  0.06424467    -0.11300
C693        C  0.98861968  0.44259372  0.08741374    -0.01300
C694        C  0.00810237  0.47008380  0.07340443    -0.06500
H695        H  0.00193824  0.45335585  0.98288209     0.06000
H696        H  0.98507892  0.43997638  0.11671452     0.09300
Br697      Br  0.10052627  0.47649090  0.04977604    -0.06200
Br698      Br  0.00708962  0.58017079  0.95048935    -0.03100
Br699      Br  0.95692311  0.39405446  0.99119441    -0.00300
Br700      Br  0.02512719  0.50232294  0.10733432    -0.04700
C701        C  0.38160611  0.53902383  0.95315939    -0.12100
C702        C  0.35991072  0.51967367  0.92985974     0.03400
C703        C  0.32427020  0.52916748  0.92210972    -0.12600
C704        C  0.30930083  0.55750016  0.93767238     0.18200
C705        C  0.33095431  0.57673864  0.96103865    -0.09700
C706        C  0.36696389  0.56786734  0.96779953    -0.02600
H707        H  0.30781595  0.51396299  0.90446170     0.04800
C708        C  0.27007516  0.56477926  0.93229268     0.20200
H709        H  0.38283049  0.58255779  0.98645940     0.09900
C710        C  0.24297435  0.54217789  0.94487834    -0.16000
C711        C  0.20566472  0.54979374  0.94511784     0.02900
C712        C  0.19482882  0.58113029  0.93347933    -0.11300
C713        C  0.22199236  0.60235162  0.91753860    -0.01300
C714        C  0.25912694  0.59432791  0.91653242    -0.06500
H715        H  0.25102028  0.51881666  0.95586396     0.06000
H716        H  0.21439006  0.62578623  0.90642426     0.09300
Br717      Br  0.31143993  0.61308252  0.98797558    -0.06200
Br718      Br  0.37746834  0.48030331  0.90745502    -0.03100
Br719      Br  0.17234656  0.51633927  0.96316184    -0.00300
Br720      Br  0.29378662  0.62446164  0.89329958    -0.04700
C721        C  0.05984431  0.55531278  0.67511877    -0.12100
C722        C  0.03994961  0.57939554  0.69473095     0.03400
C723        C  0.04793073  0.58604786  0.73132114    -0.12600
C724        C  0.07520338  0.56899307  0.74920375     0.18200
C725        C  0.09507996  0.54526001  0.72990969    -0.09700
C726        C  0.08756467  0.53879414  0.69350594    -0.02600
H727        H  0.03247719  0.60441805  0.74609168     0.04800
C728        C  0.08300677  0.57632774  0.78785518     0.20200
H729        H  0.10374981  0.52039293  0.67964088     0.09900
C730        C  0.07109107  0.55428732  0.81547041    -0.16000
C731        C  0.07847711  0.56036705  0.85223809     0.02900
C732        C  0.09785917  0.58935808  0.86198382    -0.11300
C733        C  0.11045896  0.61083947  0.83388740    -0.01300
C734        C  0.10337327  0.60450342  0.79730518    -0.06500
H735        H  0.05584702  0.53223737  0.80832926     0.06000
H736        H  0.12626029  0.63275016  0.84038423     0.09300
Br737      Br  0.13328542  0.52129475  0.75206110    -0.06200
Br738      Br  0.00071233  0.60325148  0.67435300    -0.03100
Br739      Br  0.05980869  0.52861979  0.88713396    -0.00300
Br740      Br  0.12320829  0.63445757  0.76098113    -0.04700
C741        C  0.11179278  0.67412302  0.96349996    -0.12100
C742        C  0.11644948  0.68311339  0.00058933     0.03400
C743        C  0.11358005  0.71598229  0.01137182    -0.12600
C744        C  0.10838765  0.74073929  0.98572252     0.18200
C745        C  0.10781699  0.73261938  0.94861609    -0.09700
C746        C  0.10947962  0.69985329  0.93781473    -0.02600
H747        H  0.11513393  0.72224421  0.03997487     0.04800
C748        C  0.09966732  0.77429400  0.99790209     0.20200
H749        H  0.11004898  0.69525607  0.90890299     0.09900
C750        C  0.12764660  0.79769523  0.00401654    -0.16000
C751        C  0.11929225  0.83065453  0.01119908     0.02900
C752        C  0.08226074  0.84046923  0.01203500    -0.11300
C753        C  0.05455126  0.81618196  0.00796166    -0.01300
C754        C  0.06292687  0.78364689  0.00079845    -0.06500
H755        H  0.15606143  0.79053291  0.00193809     0.06000
H756        H  0.02587617  0.82262689  0.00925956     0.09300
Br757      Br  0.10484337  0.76574776  0.91161059    -0.06200
Br758      Br  0.12845662  0.65248222  0.03805770    -0.03100
Br759      Br  0.15968134  0.86093863  0.01715116    -0.00300
Br760      Br  0.02310669  0.75298753  0.99336563    -0.04700
C761        C  0.98877057  0.07480530  0.56788958    -0.12100
C762        C  0.00553290  0.04879737  0.58613688     0.03400
C763        C  0.02380531  0.02453120  0.56598202    -0.12600
C764        C  0.02680246  0.02611087  0.52777372     0.18200
C765        C  0.01084206  0.05230288  0.50958184    -0.09700
C766        C  0.99163666  0.07598315  0.52950484    -0.02600
H767        H  0.03646374  0.00465162  0.58022812     0.04800
C768        C  0.04603048  0.99990578  0.50729106     0.20200
H769        H  0.97941348  0.09584650  0.51484710     0.09900
C770        C  0.02518761  0.97616690  0.48909727    -0.16000
C771        C  0.04208237  0.95011320  0.47093545     0.02900
C772        C  0.08060805  0.94748467  0.47057209    -0.11300
C773        C  0.10161341  0.97198193  0.48757145    -0.01300
C774        C  0.08459215  0.99794224  0.50608448    -0.06500
H775        H  0.99554927  0.97769705  0.48945496     0.06000
H776        H  0.13123061  0.97030403  0.48751316     0.09300
Br777      Br  0.01652214  0.05774587  0.45772480    -0.06200
Br778      Br  0.00802782  0.04662013  0.63821928    -0.03100
Br779      Br  0.01121469  0.91924289  0.44639516    -0.00300
Br780      Br  0.11482263  0.03008738  0.52956660    -0.04700
C781        C  0.98500951  0.35828807  0.51647202    -0.12100
C782        C  0.95171129  0.34534798  0.53234273     0.03400
C783        C  0.94946059  0.31264471  0.54392808    -0.12600
C784        C  0.97942710  0.29206663  0.53956023     0.18200
C785        C  0.01165527  0.30394462  0.52157947    -0.09700
C786        C  0.01436133  0.33679597  0.51043464    -0.02600
H787        H  0.92417976  0.30321448  0.55679381     0.04800
C788        C  0.97609835  0.25829748  0.55406452     0.20200
H789        H  0.04005949  0.34569763  0.49802424     0.09900
C790        C  0.95834194  0.23426499  0.53367115    -0.16000
C791        C  0.95227906  0.20256556  0.54748294     0.02900
C792        C  0.96326542  0.19441013  0.58328011    -0.11300
C793        C  0.98203411  0.21881284  0.60312074    -0.01300
C794        C  0.98838030  0.25037043  0.58881914    -0.06500
H795        H  0.94898978  0.24029616  0.50677573     0.06000
H796        H  0.99251372  0.21385835  0.62963624     0.09300
Br797      Br  0.05260399  0.27618895  0.51199017    -0.06200
Br798      Br  0.90767421  0.37004553  0.53847934    -0.03100
Br799      Br  0.92882176  0.17206223  0.51515067    -0.00300
Br800      Br  0.01352329  0.28216630  0.61795474    -0.04700
C801        C  0.87094513  0.10284701  0.60771274    -0.12100
C802        C  0.84090252  0.11885190  0.62447345     0.03400
C803        C  0.80543079  0.10605812  0.62084519    -0.12600
C804        C  0.79920092  0.07738692  0.60090563     0.18200
C805        C  0.82916440  0.06083787  0.58497841    -0.09700
C806        C  0.86482202  0.07348196  0.58881801    -0.01000
H807        H  0.78245618  0.11873103  0.63333886     0.04800
C808        C  0.76097719  0.06650938  0.59556522     0.20200
H809        H  0.88767603  0.06112947  0.57568771     0.09900
C810        C  0.73913876  0.08541182  0.57329766    -0.16000
C811        C  0.70245834  0.07661916  0.56806862     0.02900
C812        C  0.68703413  0.04840957  0.58562773    -0.11300
C813        C  0.70898926  0.02970450  0.60818843    -0.01300
C814        C  0.74562030  0.03868958  0.61346826    -0.06500
H815        H  0.75089947  0.10693537  0.55955409     0.06000
H816        H  0.69755794  0.00803114  0.62187887     0.09300
Br817      Br  0.82254364  0.02228600  0.55582818    -0.06200
Br818      Br  0.84641336  0.15771835  0.65343909    -0.03100
Br819      Br  0.67616401  0.10280905  0.53448613    -0.00300
Br820      Br  0.77328659  0.01286822  0.64610099    -0.04700
C821        C  0.96012773  0.10955901  0.68839929    -0.12100
C822        C  0.99199574  0.11495579  0.70857208     0.03400
C823        C  0.99358385  0.10266133  0.74414464    -0.12600
C824        C  0.96411266  0.08444440  0.76013677     0.18200
C825        C  0.93207092  0.07942532  0.74027742    -0.09700
C826        C  0.93029345  0.09195432  0.70475502    -0.02600
H827        H  0.01847066  0.10644271  0.75908465     0.04800
C828        C  0.96850730  0.06946175  0.79664343     0.20200
H829        H  0.90556042  0.08767206  0.68971596     0.09900
C830        C  0.94864614  0.08124245  0.82710960    -0.16000
C831        C  0.95473792  0.06934361  0.86233022     0.02900
C832        C  0.98136875  0.04512886  0.86752406    -0.11300
C833        C  0.00035936  0.03283866  0.83662026    -0.01300
C834        C  0.99407530  0.04465008  0.80160164    -0.06500
H835        H  0.92904143  0.10047138  0.82357522     0.06000
H836        H  0.02048870  0.01397034  0.83965705     0.09300
Br837      Br  0.89096364  0.05408002  0.75971608    -0.06200
Br838      Br  0.03547879  0.13610610  0.68796561    -0.03100
Br839      Br  0.92779299  0.08922947  0.90201606    -0.00300
Br840      Br  0.02088990  0.02587689  0.76115814    -0.04700
C841        C  0.48613948  0.43711590  0.48068595    -0.12100
C842        C  0.50713385  0.45966994  0.45886230     0.03400
C843        C  0.52647821  0.48555122  0.47519958    -0.12600
C844        C  0.52582469  0.48917145  0.51319203     0.18200
C845        C  0.50540563  0.46656189  0.53506892    -0.09700
C846        C  0.48578358  0.44088564  0.51883702    -0.02600
H847        H  0.54252715  0.50269882  0.45823114     0.04800
C848        C  0.54597332  0.51696503  0.52976127     0.20200
H849        H  0.47019544  0.42368950  0.53614516     0.09900
C850        C  0.52662204  0.54489346  0.54007081    -0.16000
C851        C  0.54421134  0.57119276  0.55719933     0.02900
C852        C  0.58214210  0.56991905  0.56396571    -0.11300
C853        C  0.60135694  0.54170856  0.55408169    -0.01300
C854        C  0.58359408  0.51538837  0.53694479    -0.06500
H855        H  0.49751034  0.54598523  0.53525250     0.06000
H856        H  0.63038839  0.54036046  0.55917588     0.09300
Br857      Br  0.50443246  0.46959074  0.58729357    -0.06200
Br858      Br  0.51333010  0.45501522  0.40713083    -0.03100
Br859      Br  0.51423024  0.60703313  0.57277374    -0.00300
Br860      Br  0.61150643  0.47761407  0.52417271    -0.04700
C861        C  0.61836749  0.69108600  0.57586562    -0.12100
C862        C  0.63139047  0.71779712  0.59702816     0.03400
C863        C  0.62480656  0.75008815  0.58640314    -0.12600
C864        C  0.60683162  0.75671064  0.55412434     0.18200
C865        C  0.59798824  0.73071688  0.53082534    -0.09700
C866        C  0.60367687  0.69847675  0.54166667    -0.02600
H867        H  0.63348743  0.77018490  0.60361135     0.04800
C868        C  0.59812061  0.79090078  0.54493503     0.20200
H869        H  0.59714186  0.67973046  0.52221751     0.09900
C870        C  0.62685250  0.81370064  0.53838955    -0.16000
C871        C  0.61972258  0.84655464  0.53108695     0.02900
C872        C  0.58303813  0.85707926  0.52981472    -0.11300
C873        C  0.55429507  0.83392557  0.53555200    -0.01300
C874        C  0.56155893  0.80122752  0.54374480    -0.06500
H875        H  0.65502688  0.80590967  0.53929115     0.06000
H876        H  0.52604631  0.84161173  0.53553458     0.09300
Br877      Br  0.57925352  0.73805485  0.48321113    -0.06200
Br878      Br  0.65906517  0.71241278  0.64031698    -0.03100
Br879      Br  0.66153583  0.87537409  0.52256946    -0.00300
Br880      Br  0.52076743  0.77226594  0.55620604    -0.04700
C881        C  0.69892849  0.59682318  0.60568932    -0.12100
C882        C  0.72097351  0.60145369  0.63618627     0.03400
C883        C  0.75685570  0.58982107  0.63560590    -0.12600
C884        C  0.77157346  0.57428453  0.60453949     0.18200
C885        C  0.74943380  0.56957487  0.57409249    -0.09700
C886        C  0.71332288  0.58060687  0.57497472    -0.02600
H887        H  0.77373072  0.59377389  0.65903055     0.04800
C888        C  0.81041750  0.56423215  0.60358188     0.20200
H889        H  0.69688303  0.57769124  0.55106381     0.09900
C890        C  0.81843053  0.53089937  0.60564101    -0.16000
C891        C  0.85449707  0.52016931  0.60088587     0.02900
C892        C  0.88359907  0.54316226  0.59298010    -0.11300
C893        C  0.87551818  0.57680067  0.59363685    -0.01300
C894        C  0.83942936  0.58735691  0.59894037    -0.06500
H895        H  0.79629998  0.51302984  0.61026074     0.06000
H896        H  0.89701285  0.59508790  0.58818669     0.09300
Br897      Br  0.76823962  0.55043824  0.52976501    -0.06200
Br898      Br  0.70420352  0.62531105  0.67824182    -0.03100
Br899      Br  0.86117836  0.47375291  0.60595174    -0.00300
Br900      Br  0.83073119  0.63354575  0.59713739    -0.04700
C901        C  0.54632477  0.55459058  0.85944014    -0.12100
C902        C  0.53893241  0.53487720  0.82881860     0.03400
C903        C  0.54721344  0.54678745  0.79366191    -0.12600
C904        C  0.56354732  0.57792181  0.78836442     0.18200
C905        C  0.57071775  0.59774412  0.81877006    -0.09700
C906        C  0.56161078  0.58620405  0.85398880    -0.02600
H907        H  0.54169724  0.53140292  0.77033858     0.04800
C908        C  0.57456583  0.58853278  0.75099652     0.20200
H909        H  0.56818456  0.60131167  0.87724385     0.09900
C910        C  0.55198927  0.60934865  0.73180664    -0.16000
C911        C  0.56146807  0.61926021  0.69604594     0.02900
C912        C  0.59460126  0.60859368  0.67909467    -0.11300
C913        C  0.61655752  0.58710036  0.69839098    -0.01300
C914        C  0.60690044  0.57719146  0.73397255    -0.06500
H915        H  0.52656305  0.61747780  0.74454268     0.06000
H916        H  0.64173569  0.57818345  0.68601918     0.09300
Br917      Br  0.59539160  0.63959445  0.81344671    -0.06200
Br918      Br  0.51740110  0.49159998  0.83327173    -0.03100
Br919      Br  0.52613047  0.64473544  0.67138793    -0.00300
Br920      Br  0.63903224  0.54856082  0.75864191    -0.04700
loop_ 
_geom_bond_atom_site_label_1 
_geom_bond_atom_site_label_2 
_geom_bond_distance 
_geom_bond_site_symmetry_2 
_ccdc_geom_bond_type 
C1            C2   1.532       .  S
C1            C7   1.543       .  S
C1            C5   1.546       .  S
C1          C861   1.537       .  S
C2            H9   1.086       .  S
C2            C3   1.362       .  D
C3            C4   1.542       .  S
C3          C881   1.478       .  S
C4            C8   1.543       .  S
C4            C6   1.537       .  S
C4           H10   1.110       .  S
C5           H11   1.080       .  S
C5            C6   1.361       .  D
C6          C852   1.484       .  S
C7           H12   1.084       .  S
C7            C8   1.370       .  D
C8          C912   1.492       .  S
C13          C14   1.550       .  S
C13          C19   1.532       .  S
C13          C17   1.531       .  S
C13         C792   1.535       .  S
C14          H21   1.082       .  S
C14          C15   1.372       .  D
C15          C16   1.541       .  S
C15         C821   1.488       .  S
C16          C20   1.537       .  S
C16          C18   1.545       .  S
C16          H22   1.110       .  S
C17          H23   1.087       .  S
C17          C18   1.364       .  D
C18         C761   1.494       .  S
C19          H24   1.086       .  S
C19          C20   1.361       .  D
C20         C801   1.477       .  S
C25          C26   1.547       .  S
C25          C31   1.529       .  S
C25          C29   1.534       .  S
C25         C741   1.541       .  S
C26          H33   1.082       .  S
C26          C27   1.369       .  D
C27          C28   1.545       .  S
C27         C732   1.499       .  S
C28          C32   1.548       .  S
C28          C30   1.555       .  S
C28          H34   1.106       .  S
C29          H35   1.086       .  S
C29          C30   1.364       .  D
C30         C681   1.486       .  S
C31          H36   1.087       .  S
C31          C32   1.367       .  D
C32         C712   1.501       .  S
C37          C38   1.539       .  S
C37          C43   1.545       .  S
C37          C41   1.534       .  S
C37         C632   1.540       .  S
C38          H45   1.086       .  S
C38          C39   1.366       .  D
C39          C40   1.546       .  S
C39         C672   1.493       .  S
C40          C44   1.545       .  S
C40          C42   1.547       .  S
C40          H46   1.110       .  S
C41          H47   1.087       .  S
C41          C42   1.364       .  D
C42         C841   1.492       .  S
C43          H48   1.081       .  S
C43          C44   1.366       .  D
C44         C641   1.486       .  S
C49          C50   1.551       .  S
C49          C55   1.543       .  S
C49          C53   1.532       .  S
C49         C581   1.546       .  S
C50          H57   1.079       .  S
C50          C51   1.375       .  D
C51          C52   1.539       .  S
C51         C572   1.507       .  S
C52          C56   1.538       .  S
C52          C54   1.543       .  S
C52          H58   1.095       .  S
C53          H59   1.087       .  S
C53          C54   1.358       .  D
C54         C541   1.473       .  S
C55          H60   1.086       .  S
C55          C56   1.372       .  D
C56         C601   1.503       .  S
C61          C62   1.542       .  S
C61          C67   1.542       .  S
C61          C65   1.541       .  S
C61         C521   1.542       .  S
C62          H69   1.080       .  S
C62          C63   1.357       .  D
C63          C64   1.537       .  S
C63         C501   1.485       .  S
C64          C68   1.541       .  S
C64          C66   1.540       .  S
C64          H70   1.111       .  S
C65          H71   1.085       .  S
C65          C66   1.369       .  D
C66         C692   1.493       .  S
C67          H72   1.086       .  S
C67          C68   1.369       .  D
C68         C492   1.483       .  S
C73          C74   1.545       .  S
C73          C79   1.538       .  S
C73          C77   1.537       .  S
C73         C432   1.530       .  S
C74          H81   1.082       .  S
C74          C75   1.365       .  D
C75          C76   1.531       .  S
C75         C472   1.471       .  S
C76          C80   1.534       .  S
C76          C78   1.535       .  S
C76          H82   1.111       .  S
C77          H83   1.085   1_556  S
C77          C78   1.366       .  D
C78         C552   1.485       .  S
C79          H84   1.086       .  S
C79          C80   1.362       .  D
C80         C452   1.477       .  S
C85          C86   1.547       .  S
C85          C91   1.541       .  S
C85          C89   1.534       .  S
C85         C392   1.546       .  S
C86          H93   1.081       .  S
C86          C87   1.367       .  D
C87          C88   1.538       .  S
C87         C372   1.489       .  S
C88          C92   1.544       .  S
C88          C90   1.542       .  S
C88          H94   1.110       .  S
C89          H95   1.086       .  S
C89          C90   1.365       .  D
C90         C772   1.486       .  S
C91          H96   1.085       .  S
C91          C92   1.369       .  D
C92         C412   1.489       .  S
Zr97         O98   2.442       .  S
Zr97         O99   2.439   1_556  S
Zr97        O100   2.443   1_556  S
Zr97        O103   2.444       .  S
Zr97        O105   2.386   1_556  S
Zr97        O106   2.383   1_655  S
Zr97        O107   2.406   1_546  S
Zr97        O108   2.401   1_645  S
O98         H154   0.990       .  S
O98         H162   0.990   1_545  S
O99         C119   1.283       .  A
O100        C121   1.286   1_545  A
O101       Zr111   2.429       .  S
O101        C120   1.284   1_455  A
O102       Zr110   2.414       .  S
O102        C121   1.281       .  A
O103        C120   1.285       .  A
O104       Zr112   2.404       .  S
O104        C119   1.277   1_455  A
O105       Zr110   2.396   1_545  S
O105       Zr112   2.372   1_655  S
O106       Zr111   2.393       .  S
O106       Zr112   2.379   1_556  S
O106        H141   0.966       .  S
O107       Zr110   2.405       .  S
O107       Zr127   2.381   1_654  S
O107        H144   0.965       .  S
O108       Zr111   2.385   1_565  S
O108       Zr127   2.387       .  S
Zr109       O134   2.442       .  S
Zr109       O128   2.467       .  S
Zr109       O136   2.445       .  S
Zr109       O124   2.457       .  S
Zr109       O115   2.403   1_565  S
Zr109       O116   2.418       .  S
Zr109       O117   2.378       .  S
Zr109       O118   2.393   1_554  S
Zr110       O129   2.435       .  S
Zr110       O122   2.436   1_565  S
Zr110       O123   2.428   1_655  S
Zr110       O116   2.393   1_655  S
Zr110       O117   2.394   1_655  S
Zr111       O113   2.436   1_545  S
Zr111       O135   2.439       .  S
Zr111       O137   2.414       .  S
Zr111       O115   2.381   1_556  S
Zr111       O118   2.398   1_545  S
Zr112       O138   2.434       .  S
Zr112       O139   2.435       .  S
Zr112       O114   2.436       .  S
Zr112       O115   2.378       .  S
Zr112       O116   2.393   1_545  S
O113        H150   0.990       .  S
O114        H145   0.990       .  S
O114        H159   0.990       .  S
O116        H142   0.965       .  S
O117       Zr127   2.388   1_554  S
O118       Zr127   2.384       .  S
O118        H143   0.966       .  S
C119        C532   1.462       .  S
C120        C832   1.492       .  S
C121        C612   1.472       .  S
O122        H158   0.990       .  S
O123        C125   1.283       .  A
O124        C125   1.287       .  A
C125        C401   1.491       .  S
O126       Zr127   2.439   1_655  S
O126        H155   0.991       .  S
Zr127       O130   2.438   1_456  S
Zr127       O131   2.440       .  S
Zr127       O132   2.391       .  S
O128        C133   1.288       .  A
O129        H146   0.990       .  S
O129        H161   0.990       .  S
O130        H147   0.990       .  S
O131        H151   0.990       .  S
O131        H160   0.990       .  S
O132        C133   1.278   1_556  A
C133        C752   1.492       .  S
O134        H153   0.991       .  S
O134        H157   0.990       .  S
O135        H149   0.990       .  S
O135        H156   0.990       .  S
O136        C140   1.286   1_554  A
O137        C140   1.282   1_545  A
O138        H148   0.990       .  S
O139        H152   0.990       .  S
C140        C461   1.465   1_565  S
Zr163       O164   2.440       .  S
Zr163       O165   2.461       .  S
Zr163       O166   2.461       .  S
Zr163       O169   2.436       .  S
Zr163       O171   2.375       .  S
Zr163       O172   2.390       .  S
Zr163       O173   2.416       .  S
Zr163       O174   2.405       .  S
O164        H220   0.989       .  S
O164        H228   0.990       .  S
O165        C185   1.287       .  A
O166        C187   1.287       .  A
O167       Zr177   2.413   1_545  S
O167        C186   1.281       .  A
O168       Zr176   2.418       .  S
O168        C187   1.282       .  A
O169        C186   1.284       .  A
O170       Zr178   2.393   1_545  S
O170        C185   1.277       .  A
O171       Zr176   2.393       .  S
O171       Zr178   2.388   1_545  S
O172       Zr177   2.392   1_545  S
O172       Zr178   2.379   1_545  S
O172        H207   0.966       .  S
O173       Zr176   2.392       .  S
O173       Zr193   2.398       .  S
O173        H210   0.965       .  S
O174       Zr177   2.381   1_545  S
O174       Zr193   2.390       .  S
Zr175       O200   2.440       .  S
Zr175       O194   2.432       .  S
Zr175       O202   2.455       .  S
Zr175       O190   2.455       .  S
Zr175       O181   2.403       .  S
Zr175       O182   2.402       .  S
Zr175       O183   2.384   1_565  S
Zr175       O184   2.385       .  S
Zr176       O195   2.435       .  S
Zr176       O188   2.435       .  S
Zr176       O189   2.409       .  S
Zr176       O182   2.399   1_545  S
Zr176       O183   2.392       .  S
Zr177       O179   2.436       .  S
Zr177       O201   2.436       .  S
Zr177       O203   2.408       .  S
Zr177       O181   2.393       .  S
Zr177       O184   2.390       .  S
Zr178       O204   2.437       .  S
Zr178       O205   2.436       .  S
Zr178       O180   2.437       .  S
Zr178       O181   2.384       .  S
Zr178       O182   2.378       .  S
O179        H216   0.990       .  S
O180        H211   0.990       .  S
O180        H225   0.990   1_565  S
O182        H208   0.965       .  S
O183       Zr193   2.379       .  S
O184       Zr193   2.374   1_565  S
O184        H209   0.966       .  S
C185        C441   1.485       .  S
C186        C812   1.474       .  S
C187        C621   1.487       .  S
O188        H224   0.990       .  S
O189        C191   1.280   1_545  A
O190        C191   1.290       .  A
C191        C361   1.484       .  S
O192       Zr193   2.440       .  S
O192        H221   0.990       .  S
Zr193       O196   2.437       .  S
Zr193       O197   2.439       .  S
Zr193       O198   2.427   1_545  S
O194        C199   1.283       .  A
O195        H212   0.990       .  S
O195        H227   0.990       .  S
O196        H213   0.990       .  S
O197        H217   0.990   1_545  S
O197        H226   0.990       .  S
O198        C199   1.284       .  A
C199        C561   1.480       .  S
O200        H219   0.990       .  S
O200        H223   0.990       .  S
O201        H215   0.990       .  S
O201        H222   0.990       .  S
O202        C206   1.288       .  A
O203        C206   1.280       .  A
O204        H214   0.990       .  S
O205        H218   0.990       .  S
C206        C872   1.481       .  S
Zr229       O230   2.442       .  S
Zr229       O231   2.443       .  S
Zr229       O232   2.445       .  S
Zr229       O235   2.437       .  S
Zr229       O237   2.382       .  S
Zr229       O238   2.381       .  S
Zr229       O239   2.411       .  S
Zr229       O240   2.400   1_554  S
O230        H286   0.990       .  S
O230        H294   0.990       .  S
O231        C251   1.284       .  A
O232        C253   1.285       .  A
O233       Zr243   2.410       .  S
O233        C252   1.278       .  A
O234       Zr242   2.418       .  S
O234        C253   1.283       .  A
O235        C252   1.286       .  A
O236       Zr244   2.429       .  S
O236        C251   1.283       .  A
O237       Zr242   2.398       .  S
O237       Zr244   2.375       .  S
O238       Zr243   2.393       .  S
O238       Zr244   2.371       .  S
O238        H273   0.966       .  S
O239       Zr242   2.401       .  S
O239       Zr259   2.387   1_554  S
O239        H276   0.965       .  S
O240       Zr243   2.389   1_556  S
O240       Zr259   2.389       .  S
Zr241       O266   2.441       .  S
Zr241       O260   2.452       .  S
Zr241       O268   2.451       .  S
Zr241       O256   2.443       .  S
Zr241       O247   2.407   1_556  S
Zr241       O248   2.410   1_556  S
Zr241       O249   2.380       .  S
Zr241       O250   2.379       .  S
Zr242       O261   2.436       .  S
Zr242       O254   2.435       .  S
Zr242       O255   2.432       .  S
Zr242       O248   2.393       .  S
Zr242       O249   2.390   1_554  S
Zr243       O245   2.434   1_554  S
Zr243       O267   2.438       .  S
Zr243       O269   2.420   1_554  S
Zr243       O247   2.391       .  S
Zr243       O250   2.387   1_554  S
Zr244       O270   2.435       .  S
Zr244       O271   2.434       .  S
Zr244       O246   2.436       .  S
Zr244       O247   2.402       .  S
Zr244       O248   2.394       .  S
O245        H282   0.989       .  S
O246        H277   0.990       .  S
O246        H291   0.990       .  S
O248        H274   0.965       .  S
O249       Zr259   2.380       .  S
O250       Zr259   2.381       .  S
O250        H275   0.966       .  S
C251        C661   1.481       .  S
C252        C421   1.490       .  S
C253        C512   1.481       .  S
O254        H290   0.990       .  S
O255        C257   1.283       .  A
O256        C257   1.287   1_556  A
C257        C592   1.497       .  S
O258       Zr259   2.440       .  S
O258        H287   0.990       .  S
Zr259       O262   2.437       .  S
Zr259       O263   2.438       .  S
Zr259       O264   2.409       .  S
O260        C265   1.287       .  A
O261        H278   0.990       .  S
O261        H293   0.990   1_554  S
O262        H279   0.990       .  S
O263        H283   0.989       .  S
O263        H292   0.990       .  S
O264        C265   1.280       .  A
C265        C901   1.476       .  S
O266        H285   0.990       .  S
O266        H289   0.990   1_556  S
O267        H281   0.990       .  S
O267        H288   0.990       .  S
O268        C272   1.287       .  A
O269        C272   1.282       .  A
O270        H280   0.990       .  S
O271        H284   0.990       .  S
C272        C701   1.483       .  S
Zr295       O296   2.442   1_455  S
Zr295       O297   2.478       .  S
Zr295       O298   2.465   1_455  S
Zr295       O301   2.447       .  S
Zr295       O303   2.379       .  S
Zr295       O304   2.388       .  S
Zr295       O305   2.419   1_455  S
Zr295       O306   2.412       .  S
O296        H352   0.990       .  S
O296        H360   0.991       .  S
O297        C317   1.290       .  A
O298        C319   1.290       .  A
O299       Zr309   2.437       .  S
O299        C318   1.286       .  A
O300       Zr308   2.418       .  S
O300        C319   1.280       .  A
O301        C318   1.288       .  A
O302       Zr310   2.393       .  S
O302        C317   1.277       .  A
O303       Zr308   2.398   1_455  S
O303       Zr310   2.382       .  S
O304       Zr309   2.401       .  S
O304       Zr310   2.378       .  S
O304        H339   0.966       .  S
O305       Zr308   2.399       .  S
O305       Zr325   2.402       .  S
O305        H342   0.965       .  S
O306       Zr309   2.387       .  S
O306       Zr325   2.392   1_455  S
Zr307       O332   2.442       .  S
Zr307       O326   2.451       .  S
Zr307       O334   2.444       .  S
Zr307       O322   2.456       .  S
Zr307       O313   2.399       .  S
Zr307       O314   2.411       .  S
Zr307       O315   2.380   1_455  S
Zr307       O316   2.389       .  S
Zr308       O327   2.436       .  S
Zr308       O320   2.434       .  S
Zr308       O321   2.423       .  S
Zr308       O314   2.398   1_655  S
Zr308       O315   2.394       .  S
Zr309       O311   2.434       .  S
Zr309       O333   2.436       .  S
Zr309       O335   2.438       .  S
Zr309       O313   2.385       .  S
Zr309       O316   2.401       .  S
Zr310       O336   2.435       .  S
Zr310       O337   2.435       .  S
Zr310       O312   2.437       .  S
Zr310       O313   2.377       .  S
Zr310       O314   2.381       .  S
O311        H348   0.990       .  S
O312        H343   0.990       .  S
O312        H357   0.990       .  S
O314        H340   0.964       .  S
O315       Zr325   2.384       .  S
O316       Zr325   2.381   1_455  S
O316        H341   0.966       .  S
C317        C721   1.503       .  S
C318        C381   1.492       .  S
C319        C892   1.496       .  S
O320        H356   0.990       .  S
O321        C323   1.282       .  A
O322        C323   1.288   1_455  A
C323        C781   1.491       .  S
O324       Zr325   2.439       .  S
O324        H353   0.990       .  S
Zr325       O328   2.437       .  S
Zr325       O329   2.440   1_655  S
Zr325       O330   2.427       .  S
O326        C331   1.286       .  A
O327        H344   0.990       .  S
O327        H359   0.990       .  S
O328        H345   0.990       .  S
O329        H349   0.990       .  S
O329        H358   0.989       .  S
O330        C331   1.282   1_655  A
C331        C481   1.493       .  S
O332        H351   0.991       .  S
O332        H355   0.990       .  S
O333        H347   0.990       .  S
O333        H354   0.990       .  S
O334        C338   1.287       .  A
O335        C338   1.285       .  A
O336        H346   0.990       .  S
O337        H350   0.990       .  S
C338        C652   1.482       .  S
C361        C362   1.417       .  A
C361        C366   1.406       .  A
C362        C363   1.398       .  A
C362       Br378   1.922   1_565  S
C363        C364   1.401       .  A
C363        H367   1.084       .  S
C364        C368   1.482       .  S
C364        C365   1.410       .  A
C365        C366   1.398       .  A
C365       Br377   1.920       .  S
C366        H369   1.083       .  S
C368        C370   1.403       .  A
C368        C374   1.408       .  A
C370        C371   1.401       .  A
C370        H375   1.084       .  S
C371        C372   1.414       .  A
C371       Br379   1.915       .  S
C372        C373   1.405       .  A
C373        C374   1.396       .  A
C373        H376   1.084       .  S
C374       Br380   1.920       .  S
C381        C382   1.417       .  A
C381        C386   1.410       .  A
C382        C383   1.399       .  A
C382       Br398   1.919       .  S
C383        C384   1.399       .  A
C383        H387   1.084       .  S
C384        C388   1.482       .  S
C384        C385   1.407       .  A
C385        C386   1.404       .  A
C385       Br397   1.917       .  S
C386        H389   1.083       .  S
C388        C390   1.399       .  A
C388        C394   1.402       .  A
C390        C391   1.403       .  A
C390        H395   1.084       .  S
C391        C392   1.423       .  A
C391       Br399   1.920       .  S
C392        C393   1.417       .  A
C393        C394   1.400       .  A
C393        H396   1.075       .  S
C394       Br400   1.919       .  S
C401        C402   1.416       .  A
C401        C406   1.410       .  A
C402        C403   1.399       .  A
C402       Br418   1.920   1_455  S
C403        C404   1.400       .  A
C403        H407   1.084       .  S
C404        C408   1.482       .  S
C404        C405   1.407       .  A
C405        C406   1.404       .  A
C405       Br417   1.918       .  S
C406        H409   1.083       .  S
C408        C410   1.401       .  A
C408        C414   1.408       .  A
C410        C411   1.401       .  A
C410        H415   1.083       .  S
C411        C412   1.416       .  A
C411       Br419   1.920       .  S
C412        C413   1.404       .  A
C413        C414   1.401       .  A
C413        H416   1.083       .  S
C414       Br420   1.918       .  S
C421        C422   1.422       .  A
C421        C426   1.410       .  A
C422        C423   1.394   1_554  A
C422       Br438   1.924   1_554  S
C423        C424   1.398   1_556  A
C423        H427   1.084       .  S
C424        C428   1.476       .  S
C424        C425   1.406       .  A
C425        C426   1.397       .  A
C425       Br437   1.920       .  S
C426        H429   1.083       .  S
C428        C430   1.397   1_554  A
C428        C434   1.405       .  A
C430        C431   1.394       .  A
C430        H435   1.084       .  S
C431        C432   1.422       .  A
C431       Br439   1.924       .  S
C432        C433   1.412   1_556  A
C433        C434   1.396       .  A
C433        H436   1.076       .  S
C434       Br440   1.921       .  S
C441        C442   1.413       .  A
C441        C446   1.409       .  A
C442        C443   1.404       .  A
C442       Br458   1.919       .  S
C443        C444   1.404       .  A
C443        H447   1.083       .  S
C444        C448   1.477       .  S
C444        C445   1.403       .  A
C445        C446   1.394       .  A
C445       Br457   1.921       .  S
C446        H449   1.084       .  S
C448        C450   1.404       .  A
C448        C454   1.407       .  A
C450        C451   1.399       .  A
C450        H455   1.084       .  S
C451        C452   1.409       .  A
C451       Br459   1.920       .  S
C452        C453   1.402       .  A
C453        C454   1.397       .  A
C453        H456   1.084       .  S
C454       Br460   1.918       .  S
C461        C462   1.411       .  A
C461        C466   1.402   1_545  A
C462        C463   1.390       .  A
C462       Br478   1.918       .  S
C463        C464   1.397       .  A
C463        H467   1.084       .  S
C464        C468   1.466       .  S
C464        C465   1.406       .  A
C465        C466   1.400   1_545  A
C465       Br477   1.916   1_545  S
C466        H469   1.083       .  S
C468        C470   1.399   1_556  A
C468        C474   1.406       .  A
C470        C471   1.395   1_554  A
C470        H475   1.084       .  S
C471        C472   1.410       .  A
C471       Br479   1.920   1_556  S
C472        C473   1.401       .  A
C473        C474   1.398       .  A
C473        H476   1.084       .  S
C474       Br480   1.919       .  S
C481        C482   1.417   1_455  A
C481        C486   1.409   1_455  A
C482        C483   1.403       .  A
C482       Br498   1.920   1_655  S
C483        C484   1.401       .  A
C483        H487   1.084       .  S
C484        C488   1.484       .  S
C484        C485   1.407       .  A
C485        C486   1.403       .  A
C485       Br497   1.917       .  S
C486        H489   1.083   1_655  S
C488        C490   1.402       .  A
C488        C494   1.409       .  A
C490        C491   1.402       .  A
C490        H495   1.083   1_655  S
C491        C492   1.409       .  A
C491       Br499   1.917   1_655  S
C492        C493   1.403       .  A
C493        C494   1.404       .  A
C493        H496   1.083       .  S
C494       Br500   1.918       .  S
C501        C502   1.417       .  A
C501        C506   1.404       .  A
C502        C503   1.394       .  A
C502       Br518   1.924       .  S
C503        C504   1.398       .  A
C503        H507   1.084       .  S
C504        C508   1.473       .  S
C504        C505   1.405       .  A
C505        C506   1.401       .  A
C505       Br517   1.916       .  S
C506        H509   1.082       .  S
C508        C510   1.401       .  A
C508        C514   1.404       .  A
C510        C511   1.401       .  A
C510        H515   1.083       .  S
C511        C512   1.414       .  A
C511       Br519   1.920       .  S
C512        C513   1.407       .  A
C513        C514   1.394       .  A
C513        H516   1.083       .  S
C514       Br520   1.920       .  S
C521        C522   1.421       .  A
C521        C526   1.418       .  A
C522        C523   1.402       .  A
C522       Br538   1.919   1_655  S
C523        C524   1.400       .  A
C523        H527   1.084   1_655  S
C524        C528   1.473       .  S
C524        C525   1.397       .  A
C525        C526   1.394       .  A
C525       Br537   1.921       .  S
C526        H529   1.075       .  S
C528        C530   1.402       .  A
C528        C534   1.407       .  A
C530        C531   1.397       .  A
C530        H535   1.084       .  S
C531        C532   1.405       .  A
C531       Br539   1.918       .  S
C532        C533   1.402       .  A
C533        C534   1.398       .  A
C533        H536   1.084   1_554  S
C534       Br540   1.918   1_554  S
C541        C542   1.405       .  A
C541        C546   1.399       .  A
C542        C543   1.399       .  A
C542       Br558   1.919       .  S
C543        C544   1.407       .  A
C543        H547   1.083       .  S
C544        C548   1.485   1_565  S
C544        C545   1.413       .  A
C545        C546   1.397       .  A
C545       Br557   1.921   1_554  S
C546        H549   1.084       .  S
C548        C550   1.404       .  A
C548        C554   1.411       .  A
C550        C551   1.397   1_554  A
C550        H555   1.083       .  S
C551        C552   1.411       .  A
C551       Br559   1.919       .  S
C552        C553   1.405       .  A
C553        C554   1.398   1_556  A
C553        H556   1.083       .  S
C554       Br560   1.921   1_545  S
C561        C562   1.414       .  A
C561        C566   1.405       .  A
C562        C563   1.401       .  A
C562       Br578   1.921       .  S
C563        C564   1.402       .  A
C563        H567   1.084       .  S
C564        C568   1.477       .  S
C564        C565   1.405       .  A
C565        C566   1.398       .  A
C565       Br577   1.918       .  S
C566        H569   1.084       .  S
C568        C570   1.396       .  A
C568        C574   1.401       .  A
C570        C571   1.399       .  A
C570        H575   1.084       .  S
C571        C572   1.425       .  A
C571       Br579   1.919       .  S
C572        C573   1.414       .  A
C573        C574   1.399       .  A
C573        H576   1.082       .  S
C574       Br580   1.918       .  S
C581        C582   1.426       .  A
C581        C586   1.415       .  A
C582        C583   1.403       .  A
C582       Br598   1.924       .  S
C583        C584   1.397       .  A
C583        H587   1.084   1_554  S
C584        C588   1.483       .  S
C584        C585   1.404       .  A
C585        C586   1.401       .  A
C585       Br597   1.920       .  S
C586        H589   1.074       .  S
C588        C590   1.400       .  A
C588        C594   1.405       .  A
C590        C591   1.401       .  A
C590        H595   1.084       .  S
C591        C592   1.421       .  A
C591       Br599   1.922       .  S
C592        C593   1.411       .  A
C593        C594   1.401       .  A
C593        H596   1.083   1_554  S
C594       Br600   1.917       .  S
C601        C602   1.424       .  A
C601        C606   1.412       .  A
C602        C603   1.396       .  A
C602       Br618   1.913       .  S
C603        C604   1.393       .  A
C603        H607   1.084       .  S
C604        C608   1.472       .  S
C604        C605   1.403       .  A
C605        C606   1.401       .  A
C605       Br617   1.919       .  S
C606        H609   1.083       .  S
C608        C610   1.402       .  A
C608        C614   1.406       .  A
C610        C611   1.401       .  A
C610        H615   1.083       .  S
C611        C612   1.411       .  A
C611       Br619   1.919   1_565  S
C612        C613   1.403       .  A
C613        C614   1.393       .  A
C613        H616   1.084       .  S
C614       Br620   1.919       .  S
C621        C622   1.415       .  A
C621        C626   1.409       .  A
C622        C623   1.404       .  A
C622       Br638   1.918       .  S
C623        C624   1.402       .  A
C623        H627   1.083       .  S
C624        C628   1.477       .  S
C624        C625   1.404       .  A
C625        C626   1.396       .  A
C625       Br637   1.920       .  S
C626        H629   1.083       .  S
C628        C630   1.396       .  A
C628        C634   1.402       .  A
C630        C631   1.399       .  A
C630        H635   1.084       .  S
C631        C632   1.424       .  A
C631       Br639   1.925       .  S
C632        C633   1.415       .  A
C633        C634   1.400       .  A
C633        H636   1.076       .  S
C634       Br640   1.919       .  S
C641        C642   1.408       .  A
C641        C646   1.406       .  A
C642        C643   1.403       .  A
C642       Br658   1.916       .  S
C643        C644   1.405       .  A
C643        H647   1.083       .  S
C644        C648   1.483       .  S
C644        C645   1.408       .  A
C645        C646   1.399       .  A
C645       Br657   1.919       .  S
C646        H649   1.084       .  S
C648        C650   1.404       .  A
C648        C654   1.409       .  A
C650        C651   1.403       .  A
C650        H655   1.083       .  S
C651        C652   1.412       .  A
C651       Br659   1.919       .  S
C652        C653   1.405       .  A
C653        C654   1.398       .  A
C653        H656   1.084       .  S
C654       Br660   1.920       .  S
C661        C662   1.410       .  A
C661        C666   1.406       .  A
C662        C663   1.399       .  A
C662       Br678   1.918       .  S
C663        C664   1.401       .  A
C663        H667   1.083       .  S
C664        C668   1.482       .  S
C664        C665   1.409       .  A
C665        C666   1.405       .  A
C665       Br677   1.918       .  S
C666        H669   1.083       .  S
C668        C670   1.402       .  A
C668        C674   1.404       .  A
C670        C671   1.403       .  A
C670        H675   1.084       .  S
C671        C672   1.413       .  A
C671       Br679   1.914       .  S
C672        C673   1.409       .  A
C673        C674   1.400       .  A
C673        H676   1.083       .  S
C674       Br680   1.917       .  S
C681        C682   1.410       .  A
C681        C686   1.400   1_556  A
C682        C683   1.402       .  A
C682       Br698   1.920       .  S
C683        C684   1.405   1_556  A
C683        H687   1.083   1_455  S
C684        C688   1.486       .  S
C684        C685   1.410       .  A
C685        C686   1.401       .  A
C685       Br697   1.920       .  S
C686        H689   1.079       .  S
C688        C690   1.403   1_455  A
C688        C694   1.410       .  A
C690        C691   1.401       .  A
C690        H695   1.084   1_654  S
C691        C692   1.415       .  A
C691       Br699   1.920   1_554  S
C692        C693   1.406       .  A
C693        C694   1.401   1_655  A
C693        H696   1.083       .  S
C694       Br700   1.920       .  S
C701        C702   1.414       .  A
C701        C706   1.404       .  A
C702        C703   1.402       .  A
C702       Br718   1.919       .  S
C703        C704   1.404       .  A
C703        H707   1.083       .  S
C704        C708   1.487       .  S
C704        C705   1.412       .  A
C705        C706   1.400       .  A
C705       Br717   1.921       .  S
C706        H709   1.084       .  S
C708        C710   1.402       .  A
C708        C714   1.407       .  A
C710        C711   1.402       .  A
C710        H715   1.084       .  S
C711        C712   1.415       .  A
C711       Br719   1.908       .  S
C712        C713   1.411       .  A
C713        C714   1.400       .  A
C713        H716   1.083       .  S
C714       Br720   1.920       .  S
C721        C722   1.418       .  A
C721        C726   1.415       .  A
C722        C723   1.408       .  A
C722       Br738   1.919       .  S
C723        C724   1.405       .  A
C723        H727   1.083       .  S
C724        C728   1.485       .  S
C724        C725   1.402       .  A
C725        C726   1.396       .  A
C725       Br737   1.920       .  S
C726        H729   1.083       .  S
C728        C730   1.404       .  A
C728        C734   1.404       .  A
C730        C731   1.405       .  A
C730        H735   1.084       .  S
C731        C732   1.416       .  A
C731       Br739   1.916       .  S
C732        C733   1.409       .  A
C733        C734   1.398       .  A
C733        H736   1.083       .  S
C734       Br740   1.918       .  S
C741        C742   1.424   1_556  A
C741        C746   1.414       .  A
C742        C743   1.404       .  A
C742       Br758   1.922       .  S
C743        C744   1.398   1_554  A
C743        H747   1.083       .  S
C744        C748   1.479       .  S
C744        C745   1.402       .  A
C745        C746   1.397       .  A
C745       Br757   1.920       .  S
C746        H749   1.077       .  S
C748        C750   1.405   1_556  A
C748        C754   1.402   1_556  A
C750        C751   1.409       .  A
C750        H755   1.083       .  S
C751        C752   1.416       .  A
C751       Br759   1.919       .  S
C752        C753   1.410       .  A
C753        C754   1.392       .  A
C753        H756   1.083       .  S
C754       Br760   1.921   1_554  S
C761        C762   1.414   1_655  A
C761        C766   1.409       .  A
C762        C763   1.404       .  A
C762       Br778   1.917       .  S
C763        C764   1.403       .  A
C763        H767   1.083       .  S
C764        C768   1.484   1_545  S
C764        C765   1.405       .  A
C765        C766   1.399   1_455  A
C765       Br777   1.918       .  S
C766        H769   1.083       .  S
C768        C770   1.401       .  A
C768        C774   1.409       .  A
C770        C771   1.400       .  A
C770        H775   1.084   1_455  S
C771        C772   1.411       .  A
C771       Br779   1.916       .  S
C772        C773   1.405       .  A
C773        C774   1.405       .  A
C773        H776   1.084       .  S
C774       Br780   1.918   1_565  S
C781        C782   1.419       .  A
C781        C786   1.411   1_655  A
C782        C783   1.398       .  A
C782       Br798   1.922       .  S
C783        C784   1.398       .  A
C783        H787   1.084       .  S
C784        C788   1.476       .  S
C784        C785   1.404   1_655  A
C785        C786   1.400       .  A
C785       Br797   1.918       .  S
C786        H789   1.083       .  S
C788        C790   1.395       .  A
C788        C794   1.404       .  A
C790        C791   1.397       .  A
C790        H795   1.084       .  S
C791        C792   1.426       .  A
C791       Br799   1.926       .  S
C792        C793   1.412       .  A
C793        C794   1.400       .  A
C793        H796   1.077       .  S
C794       Br800   1.919   1_655  S
C801        C802   1.412       .  A
C801        C806   1.402       .  A
C802        C803   1.394       .  A
C802       Br818   1.921       .  S
C803        C804   1.399       .  A
C803        H807   1.084       .  S
C804        C808   1.472       .  S
C804        C805   1.409       .  A
C805        C806   1.399       .  A
C805       Br817   1.919       .  S
C806        H809   1.084       .  S
C808        C810   1.401       .  A
C808        C814   1.405       .  A
C810        C811   1.396       .  A
C810        H815   1.084       .  S
C811        C812   1.413       .  A
C811       Br819   1.922       .  S
C812        C813   1.405       .  A
C813        C814   1.397       .  A
C813        H816   1.084       .  S
C814       Br820   1.918       .  S
C821        C822   1.411       .  A
C821        C826   1.406       .  A
C822        C823   1.400       .  A
C822       Br838   1.920   1_655  S
C823        C824   1.404       .  A
C823        H827   1.084   1_655  S
C824        C828   1.485       .  S
C824        C825   1.408       .  A
C825        C826   1.402       .  A
C825       Br837   1.918       .  S
C826        H829   1.083       .  S
C828        C830   1.403       .  A
C828        C834   1.407       .  A
C830        C831   1.405       .  A
C830        H835   1.083       .  S
C831        C832   1.417       .  A
C831       Br839   1.921       .  S
C832        C833   1.408   1_655  A
C833        C834   1.398   1_455  A
C833        H836   1.083       .  S
C834       Br840   1.920   1_655  S
C841        C842   1.413       .  A
C841        C846   1.408       .  A
C842        C843   1.403       .  A
C842       Br858   1.914       .  S
C843        C844   1.401       .  A
C843        H847   1.083       .  S
C844        C848   1.479       .  S
C844        C845   1.405       .  A
C845        C846   1.400       .  A
C845       Br857   1.919       .  S
C846        H849   1.083       .  S
C848        C850   1.400       .  A
C848        C854   1.408       .  A
C850        C851   1.398       .  A
C850        H855   1.084       .  S
C851        C852   1.415       .  A
C851       Br859   1.922       .  S
C852        C853   1.403       .  A
C853        C854   1.402       .  A
C853        H856   1.084       .  S
C854       Br860   1.916       .  S
C861        C862   1.421       .  A
C861        C866   1.414       .  A
C862        C863   1.400       .  A
C862       Br878   1.924       .  S
C863        C864   1.401       .  A
C863        H867   1.084       .  S
C864        C868   1.478       .  S
C864        C865   1.402       .  A
C865        C866   1.395       .  A
C865       Br877   1.921       .  S
C866        H869   1.075       .  S
C868        C870   1.399       .  A
C868        C874   1.409       .  A
C870        C871   1.397       .  A
C870        H875   1.084       .  S
C871        C872   1.416       .  A
C871       Br879   1.920       .  S
C872        C873   1.405       .  A
C873        C874   1.399       .  A
C873        H876   1.083       .  S
C874       Br880   1.920       .  S
C881        C882   1.409       .  A
C881        C886   1.401       .  A
C882        C883   1.401       .  A
C882       Br898   1.917       .  S
C883        C884   1.403       .  A
C883        H887   1.083       .  S
C884        C888   1.483       .  S
C884        C885   1.410       .  A
C885        C886   1.401       .  A
C885       Br897   1.919       .  S
C886        H889   1.084       .  S
C888        C890   1.399       .  A
C888        C894   1.407       .  A
C890        C891   1.401       .  A
C890        H895   1.084       .  S
C891        C892   1.422       .  A
C891       Br899   1.923       .  S
C892        C893   1.410       .  A
C893        C894   1.402       .  A
C893        H896   1.083       .  S
C894       Br900   1.918       .  S
C901        C902   1.413       .  A
C901        C906   1.404       .  A
C902        C903   1.398       .  A
C902       Br918   1.919       .  S
C903        C904   1.400       .  A
C903        H907   1.084       .  S
C904        C908   1.477       .  S
C904        C905   1.407       .  A
C905        C906   1.401       .  A
C905       Br917   1.917       .  S
C906        H909   1.084       .  S
C908        C910   1.400       .  A
C908        C914   1.404       .  A
C910        C911   1.402       .  A
C910        H915   1.084       .  S
C911        C912   1.418       .  A
C911       Br919   1.921       .  S
C912        C913   1.406       .  A
C913        C914   1.397       .  A
C913        H916   1.082       .  S
C914       Br920   1.919       .  S
