geometry optimzed in LAMMPS
_audit_creation_date              2020-11-30 
_audit_creation_method            'lammps2cif' 
_symmetry_space_group_name_H-M    'P1' 
_symmetry_Int_Tables_number       1 
_symmetry_cell_setting            triclinic 
loop_ 
_symmetry_equiv_pos_as_xyz 
  x,y,z 
_cell_length_a                    46.59095805 
_cell_length_b                    34.69776632353442 
_cell_length_c                    44.88642449489601 
_cell_angle_alpha                 89.84590907870091 
_cell_angle_beta                  89.01772015470523 
_cell_angle_gamma                 89.16802709002692 
loop_ 
_atom_site_label 
_atom_site_type_symbol 
_atom_site_fract_x 
_atom_site_fract_y 
_atom_site_fract_z 
_atom_site_charge 
O1          O  0.48321611  0.22708404  0.43433222    -0.76300
C2          C  0.50046348  0.14005594  0.50055089     0.84700
O3          O  0.43115205  0.27434372  0.01710192    -0.77400
O4          O  0.01648085  0.22709590  0.06779190    -0.78900
O5          O  0.06818752  0.27259133  0.48304445    -0.78700
O6          O  0.01717312  0.27216662  0.43237093    -0.77300
Zn7        Zn  0.47536964  0.21569334  0.47682084     1.55700
O8          O  0.06818034  0.22476812  0.01630902    -0.78700
Cd9        Cd  0.02503286  0.28299089  0.47578574     1.59700
Cd10       Cd  0.47413453  0.28375066  0.02425166     1.59600
O11         O  0.01711549  0.34105411  0.48293818    -0.78700
O12         O  0.49955297  0.24892127  0.49995797    -1.89200
Cd13       Cd  0.02494245  0.21508536  0.02429861     1.59900
O14         O  0.48195232  0.34163068  0.01715731    -0.78700
O15         O  0.01747402  0.15708607  0.01789329    -0.77300
C16         C  0.41889021  0.24974737  0.50089738     0.85200
C17         C  0.49989240  0.24943416  0.42007688     0.84900
O18         O  0.48359710  0.15882682  0.48360823    -0.76300
C19         C  0.08134096  0.24866475  0.99964111     0.85700
O20         O  0.43301336  0.22567242  0.48487119    -0.76400
C21         C  0.99960507  0.35913332  0.00011827     0.85800
C22         C  0.99906226  0.25002888  0.08100877     0.86100
O23         O  0.48181642  0.27266646  0.06778254    -0.78800
O24         O  0.01559324  0.33984372  0.26767161    -0.76300
C25         C  0.99823578  0.24876598  0.33104992     0.84700
O26         O  0.06772217  0.22582014  0.23346963    -0.77400
O27         O  0.48239364  0.15743885  0.26719697    -0.78900
O28         O  0.43047099  0.27491861  0.23570854    -0.78700
O29         O  0.48157909  0.34206509  0.23354803    -0.77300
Zn30       Zn  0.02316115  0.28293921  0.27472955     1.55700
O31         O  0.43061541  0.22569094  0.26772538    -0.78700
Cd32       Cd  0.47362578  0.28422921  0.22725004     1.59700
Cd33       Cd  0.02476374  0.21602756  0.22618660     1.59600
O34         O  0.48144403  0.27259562  0.18359255    -0.78700
O35         O  0.99921370  0.25002891  0.25107664    -1.89200
Cd36       Cd  0.47386649  0.21532818  0.27483841     1.59900
O37         O  0.01673780  0.22790114  0.18281611    -0.78700
O38         O  0.48147566  0.22562953  0.31843030    -0.77300
C39         C  0.07978841  0.24953228  0.25060930     0.85200
C40         C  0.99896576  0.35883081  0.25063126     0.84900
O41         O  0.01472945  0.27164983  0.31709646    -0.76300
C42         C  0.41738110  0.25039575  0.25185634     0.85700
O43         O  0.06549005  0.27266888  0.26726590    -0.76400
C44         C  0.49903401  0.25029613  0.16998289     0.85800
C45         C  0.50016024  0.13982803  0.24997726     0.86100
O46         O  0.01747870  0.15784295  0.23287861    -0.78800
O47         O  0.26763529  0.34018529  0.01737471    -0.76300
C48         C  0.24946740  0.25040402  0.08095112     0.84700
O49         O  0.31904436  0.22564598  0.48310046    -0.77400
O50         O  0.23365162  0.15857103  0.01791097    -0.78900
O51         O  0.18200437  0.27458992  0.48437503    -0.78700
O52         O  0.23264997  0.34261968  0.48430690    -0.77300
Zn53       Zn  0.27503672  0.28327031  0.02443573     1.55700
O54         O  0.18197843  0.22611254  0.01705100    -0.78700
Cd55       Cd  0.22525202  0.28487912  0.47705671     1.59700
Cd56       Cd  0.27601734  0.21637054  0.47618326     1.59600
O57         O  0.23380507  0.27400690  0.43344860    -0.78700
O58         O  0.25068396  0.25066596  0.00100144    -1.89200
Cd59       Cd  0.22511738  0.21648566  0.02496810     1.59900
O60         O  0.26794734  0.22774549  0.43275907    -0.78700
O61         O  0.23227185  0.22769308  0.06849966    -0.77300
C62         C  0.33139110  0.24911984  0.00019060     0.85200
C63         C  0.25037981  0.35927374  0.00107293     0.84900
O64         O  0.26649215  0.27241852  0.06684273    -0.76300
C65         C  0.16883780  0.25013676  0.50052944     0.85700
O66         O  0.31734611  0.27243396  0.01693752    -0.76400
C67         C  0.25083110  0.25091061  0.41988587     0.85800
C68         C  0.25118732  0.14072246  0.50060062     0.86100
O69         O  0.26853394  0.15847303  0.48337079    -0.78800
O70         O  0.26578366  0.34021558  0.26732443    -0.76300
C71         C  0.24864708  0.24998222  0.33102414     0.84700
O72         O  0.31772778  0.22576163  0.23389523    -0.77400
O73         O  0.23185013  0.15853979  0.26792771    -0.78900
O74         O  0.18039710  0.27455131  0.23482233    -0.78700
O75         O  0.23098814  0.34240760  0.23405363    -0.77300
Zn76       Zn  0.27330600  0.28346696  0.27446558     1.55700
O77         O  0.18040355  0.22678776  0.26813746    -0.78700
Cd78       Cd  0.22359263  0.28457926  0.22709809     1.59700
Cd79       Cd  0.27467077  0.21633250  0.22651818     1.59600
O80         O  0.23229249  0.27358838  0.18346415    -0.78700
O81         O  0.24909279  0.25057426  0.25114853    -1.89200
Cd82       Cd  0.22360053  0.21646424  0.27529172     1.59900
O83         O  0.26695729  0.22800982  0.18299426    -0.78700
O84         O  0.23147123  0.22707480  0.31876528    -0.77300
C85         C  0.32986499  0.24965926  0.25082903     0.85200
C86         C  0.24870270  0.35918102  0.25076843     0.84900
O87         O  0.26518005  0.27246383  0.31677200    -0.76300
C88         C  0.16724757  0.25067566  0.25150615     0.85700
O89         O  0.31560011  0.27315904  0.26718069    -0.76400
C90         C  0.24974813  0.25095080  0.16999120     0.85800
C91         C  0.24962175  0.14066055  0.25088824     0.86100
O92         O  0.26707925  0.15838315  0.23374415    -0.78800
N93         N  0.50208787  0.45850090  0.46690753    -0.34400
N94         N  0.50007668  0.45819001  0.03374261    -0.55000
N95         N  0.50222545  0.04040775  0.03351960    -0.34400
N96         N  0.50016287  0.04087888  0.46674378    -0.55000
C97         C  0.49562507  0.42136885  0.47291669     0.29200
C98         C  0.49655004  0.46508791  0.43763461     0.29200
C99         C  0.49648057  0.03399052  0.06295524     0.29200
C100        C  0.49570414  0.07777633  0.02768243     0.29200
C101        C  0.50457836  0.42029513  0.02809860     0.37800
C102        C  0.50527191  0.46349718  0.06313973     0.37800
C103        C  0.50549745  0.03523718  0.43719194     0.37800
C104        C  0.50503173  0.07851754  0.47226709     0.37800
C105        C  0.48596044  0.40410243  0.44712680    -0.19700
C106        C  0.48664865  0.43159262  0.42493572    -0.19700
C107        C  0.48629835  0.06778098  0.07590703    -0.19700
C108        C  0.48570074  0.09531090  0.05372956    -0.19700
C109        C  0.51257445  0.40148240  0.05408837    -0.20800
C110        C  0.51292968  0.42878688  0.07619927    -0.20800
C111        C  0.51362697  0.06948687  0.42392150    -0.20800
C112        C  0.51343633  0.09682202  0.44605076    -0.20800
C113        C  0.49996374  0.40182334  0.50040023    -0.16100
C114        C  0.50144591  0.50003570  0.42191481    -0.16100
C115        C  0.50039651  0.09725497  0.50011485    -0.16100
C116        C  0.50137823  0.49886606  0.07854395    -0.16100
H117        H  0.47927076  0.37458811  0.44445063     0.16800
H118        H  0.48053755  0.42734249  0.40208064     0.16800
H119        H  0.47991053  0.07218337  0.09891313     0.16800
H120        H  0.47885373  0.12503214  0.05658240     0.16800
H121        H  0.51754109  0.37114345  0.05693865     0.15100
H122        H  0.51813486  0.42360218  0.09922138     0.15100
H123        H  0.51912655  0.07432316  0.40076512     0.15100
H124        H  0.51880767  0.12684003  0.44306634     0.15100
H125        H  0.51265072  0.47672205  0.48128080     0.28300
H126        H  0.51303066  0.02186268  0.01888472     0.28300
N127        N  0.00239485  0.45814387  0.28371239    -0.35200
N128        N  0.00066933  0.04052986  0.28354734    -0.55000
N129        N  0.00303745  0.04038245  0.21673775    -0.34400
N130        N  0.00073623  0.45808635  0.21694389    -0.55000
C131        C  0.99652934  0.46483278  0.31308700     0.29200
C132        C  0.99563076  0.42112659  0.27797244     0.29200
C133        C  0.99669845  0.07781540  0.22260695     0.29200
C134        C  0.99749211  0.03405561  0.18748223     0.29200
C135        C  0.00573352  0.03489693  0.31298582     0.37800
C136        C  0.00544008  0.07821531  0.27781591     0.37800
C137        C  0.00514458  0.42015537  0.22257635     0.37800
C138        C  0.00604059  0.46345051  0.18735533     0.37800
C139        C  0.98609720  0.43153796  0.32611873    -0.19700
C140        C  0.98541684  0.40406005  0.30403315    -0.19700
C141        C  0.98716080  0.09554283  0.19673417    -0.19700
C142        C  0.98776704  0.06802715  0.17464539    -0.19700
C143        C  0.01361555  0.06917287  0.32595855    -0.20800
C144        C  0.01351136  0.09653740  0.30377359    -0.20800
C145        C  0.01330014  0.40140821  0.19639961    -0.20800
C146        C  0.01377169  0.42875771  0.17418487    -0.20800
C147        C  0.00151248  0.49973360  0.32853571    -0.16100
C148        C  0.00007712  0.40156603  0.25041751    -0.16100
C149        C  0.00212217  0.49882692  0.17191592    -0.16100
C150        C  0.00089819  0.09706912  0.25010167    -0.16100
H151        H  0.97956424  0.42744480  0.34910845     0.16800
H152        H  0.97833049  0.37470191  0.30695107     0.16800
H153        H  0.98056043  0.12535127  0.19394244     0.16800
H154        H  0.98167306  0.07256521  0.15177365     0.16800
H155        H  0.01880967  0.07403557  0.34897729     0.15100
H156        H  0.01868302  0.12660831  0.30655162     0.15100
H157        H  0.01824647  0.37106618  0.19348538     0.15100
H158        H  0.01910360  0.42361656  0.15102102     0.15100
H159        H  0.01330537  0.47619057  0.26905661     0.28300
H160        H  0.01343440  0.02164493  0.23120751     0.28300
N161        N  0.24951144  0.45883244  0.46781765    -0.34400
N162        N  0.25179740  0.04131412  0.46720575    -0.55000
N163        N  0.24927645  0.04136472  0.03414635    -0.34400
N164        N  0.25138228  0.45873390  0.03461511    -0.55000
C165        C  0.25467294  0.46484445  0.43821760     0.29200
C166        C  0.25505195  0.42118223  0.47360541     0.29200
C167        C  0.25509565  0.07871532  0.02815933     0.29200
C168        C  0.25434289  0.03510198  0.06357126     0.29200
C169        C  0.24731685  0.03583205  0.43767770     0.37800
C170        C  0.24755860  0.07933962  0.47255667     0.37800
C171        C  0.24725205  0.42082963  0.02944089     0.37800
C172        C  0.24688060  0.46441517  0.06429488     0.37800
C173        C  0.26335079  0.43046317  0.42505664    -0.19700
C174        C  0.26372581  0.40304024  0.44729934    -0.19700
C175        C  0.26379678  0.09645257  0.05417317    -0.19700
C176        C  0.26317830  0.06906519  0.07644342    -0.19700
C177        C  0.24052713  0.07059072  0.42416972    -0.20800
C178        C  0.24053072  0.09804978  0.44618414    -0.20800
C179        C  0.24026583  0.40239783  0.05606731    -0.20800
C180        C  0.24016976  0.42989859  0.07805990    -0.20800
C181        C  0.25062030  0.50012494  0.42257847    -0.16100
C182        C  0.25091412  0.40203365  0.00144394    -0.16100
C183        C  0.25024029  0.49995975  0.07930307    -0.16100
C184        C  0.25124811  0.09798584  0.00041790    -0.16100
H185        H  0.26881692  0.42558626  0.40182159     0.16800
H186        H  0.26959800  0.37298920  0.44430751     0.16800
H187        H  0.26988783  0.12619408  0.05694570     0.16800
H188        H  0.26866067  0.07366462  0.09948804     0.16800
H189        H  0.23596869  0.07564715  0.40091382     0.15100
H190        H  0.23584742  0.12840577  0.44300629     0.15100
H191        H  0.23570165  0.37219520  0.05943411     0.15100
H192        H  0.23566221  0.42501550  0.10148793     0.15100
H193        H  0.23978355  0.47799176  0.48271372     0.28300
H194        H  0.23951252  0.02266170  0.01955314     0.28300
N195        N  0.25198134  0.45841860  0.28426728    -0.34400
N196        N  0.24968389  0.45876281  0.21743154    -0.55000
N197        N  0.25201735  0.04126809  0.21752551    -0.34400
N198        N  0.24984957  0.04107676  0.28440979    -0.55000
C199        C  0.24602729  0.42110687  0.27858987     0.29200
C200        C  0.24679140  0.46469542  0.31382953     0.29200
C201        C  0.24683601  0.03524361  0.18814479     0.29200
C202        C  0.24632755  0.07887425  0.22337035     0.29200
C203        C  0.25367933  0.42067333  0.22273342     0.37800
C204        C  0.25410896  0.46425056  0.18771048     0.37800
C205        C  0.25414235  0.03543518  0.31399901     0.37800
C206        C  0.25381556  0.07902883  0.27898833     0.37800
C207        C  0.23718286  0.40340460  0.30494540    -0.19700
C208        C  0.23781454  0.43077077  0.32710129    -0.19700
C209        C  0.23810743  0.06960466  0.17514902    -0.19700
C210        C  0.23764881  0.09701323  0.19730095    -0.19700
C211        C  0.26058678  0.40196392  0.19615842    -0.20800
C212        C  0.26071273  0.42946188  0.17406412    -0.20800
C213        C  0.26058811  0.07000382  0.32744877    -0.20800
C214        C  0.26051794  0.09750451  0.30536218    -0.20800
C215        C  0.24964542  0.40192030  0.25072170    -0.16100
C216        C  0.25079439  0.49986633  0.32928787    -0.16100
C217        C  0.25007330  0.09790347  0.25108260    -0.16100
C218        C  0.25076503  0.49992345  0.17255311    -0.16100
H219        H  0.23091924  0.37372509  0.30801353     0.16800
H220        H  0.23217200  0.42620927  0.35032556     0.16800
H221        H  0.23257000  0.07445127  0.15210391     0.16800
H222        H  0.23162344  0.12701546  0.19441757     0.16800
H223        H  0.26502979  0.37155583  0.19289192     0.15100
H224        H  0.26513975  0.42439171  0.15064337     0.15100
H225        H  0.26487384  0.07493374  0.35073836     0.15100
H226        H  0.26488504  0.12775450  0.30850392     0.15100
H227        H  0.26178055  0.47711244  0.26929517     0.28300
H228        H  0.26168600  0.02210745  0.23217970     0.28300
C229        C  0.25062005  0.49976847  0.38958957    -0.11100
C230        C  0.25063659  0.49963673  0.36228264    -0.12700
C231        C  0.25036490  0.50021376  0.11227970    -0.11100
C232        C  0.25051100  0.50018399  0.13957720    -0.12700
C233        C  0.50143644  0.49989331  0.38889274    -0.11100
C234        C  0.00141914  0.49969931  0.36156033    -0.12700
C235        C  0.50158786  0.49897319  0.11156462    -0.11100
C236        C  0.00186000  0.49888463  0.13889403    -0.12700
C237        C  0.25043538  0.25072067  0.38864725    -0.11100
C238        C  0.24956905  0.25039135  0.36224027    -0.12700
C239        C  0.24991236  0.25119350  0.13869483    -0.11100
C240        C  0.24975894  0.25108198  0.11223263    -0.12700
C241        C  0.38655258  0.25038550  0.25193080    -0.11100
C242        C  0.36066860  0.25012446  0.25153068    -0.12700
C243        C  0.11057081  0.25019123  0.25116102    -0.11100
C244        C  0.13644350  0.25054757  0.25144327    -0.12700
C245        C  0.36219725  0.24925883  0.00054325    -0.11100
C246        C  0.38808499  0.24928342  0.50066888    -0.12700
C247        C  0.11215859  0.24889808  0.99973938    -0.11100
C248        C  0.13803591  0.24951076  0.50004354    -0.12700
C249        C  0.99863302  0.24895990  0.36234375    -0.11100
C250        C  0.49914690  0.24906751  0.38880014    -0.12700
C251        C  0.99887842  0.25035755  0.11227321    -0.11100
C252        C  0.49889570  0.25041099  0.13872109    -0.12700
O253        O  0.48321506  0.22708500  0.93433247    -0.76300
C254        C  0.50046269  0.14005697  0.00055085     0.84700
O255        O  0.43115272  0.27434204  0.51710156    -0.77400
O256        O  0.01648131  0.22709490  0.56779208    -0.78900
O257        O  0.06818677  0.27259205  0.98304410    -0.78700
O258        O  0.01717217  0.27216742  0.93237090    -0.77300
Zn259      Zn  0.47536878  0.21569453  0.97682116     1.55700
O260        O  0.06818099  0.22476723  0.51630924    -0.78700
Cd261      Cd  0.02503219  0.28299181  0.97578560     1.59700
Cd262      Cd  0.47413502  0.28374914  0.52425136     1.59600
O263        O  0.01711516  0.34105506  0.98293816    -0.78700
O264        O  0.49955231  0.24892253  0.99995810    -1.89200
Cd265      Cd  0.02494300  0.21508430  0.52429873     1.59900
O266        O  0.48195244  0.34162928  0.51715707    -0.78700
O267        O  0.01747453  0.15708502  0.51789357    -0.77300
C268        C  0.41888946  0.24974902  0.00089780     0.85200
C269        C  0.49989133  0.24943498  0.92007698     0.84900
O270        O  0.48359607  0.15882784  0.98360844    -0.76300
C271        C  0.08134168  0.24866392  0.49964140     0.85700
O272        O  0.43301256  0.22567394  0.98487168    -0.76400
C273        C  0.99960518  0.35913216  0.50011817     0.85800
C274        C  0.99906255  0.25002784  0.58100877     0.86100
O275        O  0.48181669  0.27266516  0.56778231    -0.78800
O276        O  0.01559318  0.33984349  0.76767164    -0.76300
C277        C  0.99823538  0.24876566  0.83105003     0.84700
O278        O  0.06772212  0.22582030  0.73346959    -0.77400
O279        O  0.48239364  0.15743844  0.76719676    -0.78900
O280        O  0.43047086  0.27491840  0.73570878    -0.78700
O281        O  0.48157894  0.34206494  0.73354809    -0.77300
Zn282      Zn  0.02316100  0.28293902  0.77472967     1.55700
O283        O  0.43061530  0.22569046  0.76772539    -0.78700
Cd284      Cd  0.47362561  0.28422900  0.72725010     1.59700
Cd285      Cd  0.02476374  0.21602757  0.72618666     1.59600
O286        O  0.48144388  0.27259517  0.68359260    -0.78700
O287        O  0.99921359  0.25002881  0.75107667    -1.89200
Cd288      Cd  0.47386637  0.21532772  0.77483830     1.59900
O289        O  0.01673785  0.22790098  0.68281616    -0.78700
O290        O  0.48147547  0.22562903  0.81843026    -0.77300
C291        C  0.07978832  0.24953239  0.75060931     0.85200
C292        C  0.99896568  0.35883062  0.75063136     0.84900
O293        O  0.01472906  0.27164962  0.81709666    -0.76300
C294        C  0.41738099  0.25039544  0.75185651     0.85700
O295        O  0.06548994  0.27266887  0.76726599    -0.76400
C296        C  0.49903395  0.25029579  0.66998295     0.85800
C297        C  0.50016038  0.13982778  0.74997710     0.86100
O298        O  0.01747880  0.15784285  0.73287859    -0.78800
O299        O  0.26763649  0.34018501  0.51737436    -0.76300
C300        C  0.24946850  0.25040416  0.58095105     0.84700
O301        O  0.31904373  0.22564709  0.98310051    -0.77400
O302        O  0.23365235  0.15857079  0.51791127    -0.78900
O303        O  0.18200371  0.27459044  0.98437487    -0.78700
O304        O  0.23264940  0.34262001  0.98430656    -0.77300
Zn305      Zn  0.27503780  0.28327001  0.52443543     1.55700
O306        O  0.18197926  0.22611218  0.51705130    -0.78700
Cd307      Cd  0.22525138  0.28487948  0.97705654     1.59700
Cd308      Cd  0.27601676  0.21637113  0.97618332     1.59600
O309        O  0.23380423  0.27400703  0.93344842    -0.78700
O310        O  0.25068473  0.25066556  0.50100145    -1.89200
Cd311      Cd  0.22511825  0.21648542  0.52496833     1.59900
O312        O  0.26794660  0.22774575  0.93275910    -0.78700
O313        O  0.23227294  0.22769311  0.56849972    -0.77300
C314        C  0.33139192  0.24911874  0.50019040     0.85200
C315        C  0.25038070  0.35927342  0.50107291     0.84900
O316        O  0.26649326  0.27241856  0.56684255    -0.76300
C317        C  0.16883706  0.25013724  0.00052916     0.85700
O318        O  0.31734713  0.27243316  0.51693723    -0.76400
C319        C  0.25083028  0.25091066  0.91988579     0.85800
C320        C  0.25118692  0.14072281  0.00060061     0.86100
O321        O  0.26853373  0.15847348  0.98337104    -0.78800
O322        O  0.26578375  0.34021564  0.76732458    -0.76300
C323        C  0.24864663  0.24998212  0.83102402     0.84700
O324        O  0.31772765  0.22576146  0.73389556    -0.77400
O325        O  0.23184989  0.15853991  0.76792740    -0.78900
O326        O  0.18039703  0.27455169  0.73482194    -0.78700
O327        O  0.23098835  0.34240777  0.73405364    -0.77300
Zn328      Zn  0.27330591  0.28346700  0.77446577     1.55700
O329        O  0.18040333  0.22678811  0.76813705    -0.78700
Cd330      Cd  0.22359267  0.28457956  0.72709791     1.59700
Cd331      Cd  0.27467066  0.21633260  0.72651822     1.59600
O332        O  0.23229290  0.27358885  0.68346395    -0.78700
O333        O  0.24909269  0.25057449  0.75114846    -1.89200
Cd334      Cd  0.22360024  0.21646438  0.77529135     1.59900
O335        O  0.26695760  0.22801014  0.68299430    -0.78700
O336        O  0.23147081  0.22707483  0.81876497    -0.77300
C337        C  0.32986493  0.24965905  0.75082934     0.85200
C338        C  0.24870289  0.35918112  0.75076850     0.84900
O339        O  0.26517973  0.27246375  0.81677208    -0.76300
C340        C  0.16724744  0.25067608  0.75150576     0.85700
O341        O  0.31560011  0.27315899  0.76718094    -0.76400
C342        C  0.24974864  0.25095125  0.66999111     0.85800
C343        C  0.24962157  0.14066065  0.75088802     0.86100
O344        O  0.26707910  0.15838325  0.73374397    -0.78800
N345        N  0.50208799  0.45850191  0.96690753    -0.34400
N346        N  0.50007635  0.45818888  0.53374264    -0.55000
N347        N  0.50222554  0.04040669  0.53351965    -0.34400
N348        N  0.50016287  0.04087984  0.96674369    -0.55000
C349        C  0.49562498  0.42137004  0.97291681     0.29200
C350        C  0.49655010  0.46508892  0.93763470     0.29200
C351        C  0.49648058  0.03398944  0.56295525     0.29200
C352        C  0.49570459  0.07777535  0.52768252     0.29200
C353        C  0.50457806  0.42029398  0.52809862     0.37800
C354        C  0.50527151  0.46349605  0.56313979     0.37800
C355        C  0.50549743  0.03523816  0.93719185     0.37800
C356        C  0.50503133  0.07851861  0.97226696     0.37800
C357        C  0.48596010  0.40410363  0.94712701    -0.19700
C358        C  0.48664846  0.43159370  0.92493588    -0.19700
C359        C  0.48629860  0.06778002  0.57590707    -0.19700
C360        C  0.48570126  0.09531001  0.55372966    -0.19700
C361        C  0.51257396  0.40148123  0.55408846    -0.20800
C362        C  0.51292912  0.42878572  0.57619937    -0.20800
C363        C  0.51362662  0.06948797  0.92392134    -0.20800
C364        C  0.51343571  0.09682319  0.94605058    -0.20800
C365        C  0.49996383  0.40182446  0.00040028    -0.16100
C366        C  0.50144600  0.50003661  0.92191484    -0.16100
C367        C  0.50039590  0.09725597  0.00011473    -0.16100
C368        C  0.50137800  0.49886499  0.57854399    -0.16100
H369        H  0.47927024  0.37458937  0.94445091     0.16800
H370        H  0.48053724  0.42734356  0.90208083     0.16800
H371        H  0.47991075  0.07218243  0.59891316     0.16800
H372        H  0.47885444  0.12503132  0.55658253     0.16800
H373        H  0.51754056  0.37114227  0.55693877     0.15100
H374        H  0.51813423  0.42360105  0.59922150     0.15100
H375        H  0.51912604  0.07432433  0.90076493     0.15100
H376        H  0.51880667  0.12684131  0.94306612     0.15100
H377        H  0.51265125  0.47672323  0.98128089     0.28300
H378        H  0.51303062  0.02186138  0.51888466     0.28300
N379        N  0.00239508  0.45814379  0.78371246    -0.35200
N380        N  0.00066959  0.04052976  0.78354723    -0.55000
N381        N  0.00303766  0.04038213  0.71673767    -0.34400
N382        N  0.00073648  0.45808603  0.71694394    -0.55000
C383        C  0.99652965  0.46483282  0.81308708     0.29200
C384        C  0.99563096  0.42112650  0.77797258     0.29200
C385        C  0.99669861  0.07781504  0.72260684     0.29200
C386        C  0.99749226  0.03405514  0.68748218     0.29200
C387        C  0.00573395  0.03489688  0.81298569     0.37800
C388        C  0.00544037  0.07821518  0.77781575     0.37800
C389        C  0.00514475  0.42015508  0.72257646     0.37800
C390        C  0.00604077  0.46345007  0.68735537     0.37800
C391        C  0.98609750  0.43153806  0.82611889    -0.19700
C392        C  0.98541711  0.40406008  0.80403335    -0.19700
C393        C  0.98716088  0.09554239  0.69673404    -0.19700
C394        C  0.98776715  0.06802667  0.67464527    -0.19700
C395        C  0.01361612  0.06917280  0.82595836    -0.20800
C396        C  0.01351183  0.09653733  0.80377338    -0.20800
C397        C  0.01330023  0.40140783  0.69639974    -0.20800
C398        C  0.01377184  0.42875723  0.67418495    -0.20800
C399        C  0.00151292  0.49973369  0.82853572    -0.16100
C400        C  0.00007717  0.40156583  0.75041762    -0.16100
C401        C  0.00212229  0.49882640  0.67191590    -0.16100
C402        C  0.00089840  0.09706889  0.75010149    -0.16100
H403        H  0.97956455  0.42744497  0.84910862     0.16800
H404        H  0.97833073  0.37470196  0.80695133     0.16800
H405        H  0.98056043  0.12535081  0.69394231     0.16800
H406        H  0.98167312  0.07256468  0.65177356     0.16800
H407        H  0.01881042  0.07403542  0.84897705     0.15100
H408        H  0.01868357  0.12660823  0.80655135     0.15100
H409        H  0.01824646  0.37106576  0.69348551     0.15100
H410        H  0.01910379  0.42361598  0.65102113     0.15100
H411        H  0.01330558  0.47619043  0.76905664     0.28300
H412        H  0.01343475  0.02164452  0.73120756     0.28300
N413        N  0.24951082  0.45883286  0.96781763    -0.34400
N414        N  0.25179710  0.04131451  0.96720569    -0.55000
N415        N  0.24927684  0.04136440  0.53414637    -0.34400
N416        N  0.25138302  0.45873356  0.53461511    -0.55000
C417        C  0.25467255  0.46484485  0.93821762     0.29200
C418        C  0.25505118  0.42118262  0.97360543     0.29200
C419        C  0.25509601  0.07871497  0.52815935     0.29200
C420        C  0.25434326  0.03510169  0.56357127     0.29200
C421        C  0.24731677  0.03583250  0.93767761     0.37800
C422        C  0.24755840  0.07934003  0.97255660     0.37800
C423        C  0.24725306  0.42082922  0.52944091     0.37800
C424        C  0.24688143  0.46441476  0.56429490     0.37800
C425        C  0.26335040  0.43046353  0.92505674    -0.19700
C426        C  0.26372519  0.40304061  0.94729944    -0.19700
C427        C  0.26379707  0.09645226  0.55417318    -0.19700
C428        C  0.26317858  0.06906494  0.57644342    -0.19700
C429        C  0.24052723  0.07059123  0.92416961    -0.20800
C430        C  0.24053075  0.09805027  0.94618403    -0.20800
C431        C  0.24026703  0.40239733  0.55606734    -0.20800
C432        C  0.24017087  0.42989808  0.57805993    -0.20800
C433        C  0.25062014  0.50012533  0.92257841    -0.16100
C434        C  0.25091503  0.40203328  0.50144393    -0.16100
C435        C  0.25024082  0.49995942  0.57930307    -0.16100
C436        C  0.25124842  0.09798549  0.50041793    -0.16100
H437        H  0.26881673  0.42558657  0.90182174     0.16800
H438        H  0.26959740  0.37298957  0.94430764     0.16800
H439        H  0.26988807  0.12619380  0.55694571     0.16800
H440        H  0.26866094  0.07366447  0.59948805     0.16800
H441        H  0.23596890  0.07564769  0.90091368     0.15100
H442        H  0.23584753  0.12840627  0.94300615     0.15100
H443        H  0.23570296  0.37219467  0.55943414     0.15100
H444        H  0.23566339  0.42501495  0.60148797     0.15100
H445        H  0.23978291  0.47799224  0.98271366     0.28300
H446        H  0.23951289  0.02266135  0.51955317     0.28300
N447        N  0.25198157  0.45841872  0.78426727    -0.34400
N448        N  0.24968419  0.45876285  0.71743153    -0.55000
N449        N  0.25201733  0.04126808  0.71752543    -0.34400
N450        N  0.24984956  0.04107689  0.78440967    -0.55000
C451        C  0.24602743  0.42110702  0.77858989     0.29200
C452        C  0.24679163  0.46469560  0.81382951     0.29200
C453        C  0.24683618  0.03524359  0.68814462     0.29200
C454        C  0.24632748  0.07887433  0.72337017     0.29200
C455        C  0.25367977  0.42067340  0.72273350     0.37800
C456        C  0.25410942  0.46425054  0.68771049     0.37800
C457        C  0.25414227  0.03543541  0.81399892     0.37800
C458        C  0.25381543  0.07902898  0.77898818     0.37800
C459        C  0.23718292  0.40340482  0.80494543    -0.19700
C460        C  0.23781470  0.43077100  0.82710132    -0.19700
C461        C  0.23810768  0.06960464  0.67514879    -0.19700
C462        C  0.23764887  0.09701325  0.69730073    -0.19700
C463        C  0.26058746  0.40196398  0.69615858    -0.20800
C464        C  0.26071341  0.42946187  0.67406422    -0.20800
C465        C  0.26058794  0.07000411  0.82744865    -0.20800
C466        C  0.26051774  0.09750474  0.80536201    -0.20800
C467        C  0.24964567  0.40192040  0.75072175    -0.16100
C468        C  0.25079450  0.49986656  0.82928780    -0.16100
C469        C  0.25007316  0.09790356  0.75108243    -0.16100
C470        C  0.25076541  0.49992336  0.67255306    -0.16100
H471        H  0.23091920  0.37372535  0.80801358     0.16800
H472        H  0.23217211  0.42620961  0.85032558     0.16800
H473        H  0.23257042  0.07445125  0.65210363     0.16800
H474        H  0.23162348  0.12701547  0.69441734     0.16800
H475        H  0.26503055  0.37155589  0.69289218     0.15100
H476        H  0.26514054  0.42439163  0.65064350     0.15100
H477        H  0.26487371  0.07493408  0.85073822     0.15100
H478        H  0.26488483  0.12775475  0.80850368     0.15100
H479        H  0.26178080  0.47711250  0.76929514     0.28300
H480        H  0.26168575  0.02210773  0.73217953     0.28300
C481        C  0.25062005  0.49976880  0.88958951    -0.11100
C482        C  0.25063665  0.49963699  0.86228257    -0.12700
C483        C  0.25036531  0.50021348  0.61227969    -0.11100
C484        C  0.25051135  0.50018378  0.63957718    -0.12700
C485        C  0.50143671  0.49989400  0.88889277    -0.11100
C486        C  0.00141956  0.49969964  0.86156035    -0.12700
C487        C  0.50158774  0.49897218  0.61156466    -0.11100
C488        C  0.00185996  0.49888386  0.63889405    -0.12700
C489        C  0.25043458  0.25072047  0.88864716    -0.11100
C490        C  0.24956841  0.25039111  0.86224016    -0.12700
C491        C  0.24991318  0.25119398  0.63869474    -0.11100
C492        C  0.24975995  0.25108236  0.61223255    -0.12700
C493        C  0.38655251  0.25038521  0.75193105    -0.11100
C494        C  0.36066853  0.25012407  0.75153098    -0.12700
C495        C  0.11057070  0.25019153  0.75116093    -0.11100
C496        C  0.13644338  0.25054810  0.75144296    -0.12700
C497        C  0.36219804  0.24925737  0.50054297    -0.11100
C498        C  0.38808420  0.24928510  0.00066926    -0.12700
C499        C  0.11215933  0.24889724  0.49973972    -0.11100
C500        C  0.13803517  0.24951137  0.00004320    -0.12700
C501        C  0.99863223  0.24895983  0.86234389    -0.11100
C502        C  0.49914582  0.24906799  0.88880025    -0.12700
C503        C  0.99887847  0.25035679  0.61227324    -0.11100
C504        C  0.49889559  0.25041049  0.63872112    -0.12700
O505        O  0.48377559  0.72704737  0.43419315    -0.76300
C506        C  0.50047218  0.64005597  0.50055752     0.84700
O507        O  0.43099147  0.77437705  0.01645985    -0.77400
O508        O  0.01577873  0.72708399  0.06797488    -0.78900
O509        O  0.06827035  0.77259754  0.48368789    -0.78700
O510        O  0.01775001  0.77211692  0.43252074    -0.77300
Zn511      Zn  0.47554252  0.71568305  0.47661681     1.55700
O512        O  0.06800023  0.72484302  0.01701019    -0.78700
Cd513      Cd  0.02519470  0.78298547  0.47601764     1.59700
Cd514      Cd  0.47389768  0.78378651  0.02402648     1.59600
O515        O  0.01721794  0.84105072  0.48307812    -0.78700
O516        O  0.49951747  0.74893256  0.49997346    -1.89200
Cd517      Cd  0.02469595  0.71511398  0.02456073     1.59900
O518        O  0.48180936  0.84166331  0.01702561    -0.78700
O519        O  0.01733898  0.65710238  0.01804355    -0.77300
C520        C  0.41886377  0.74973991  0.50017997     0.85200
C521        C  0.50058382  0.74936594  0.42007676     0.84900
O522        O  0.48372641  0.65881847  0.48348231    -0.76300
C523        C  0.08129024  0.74871157  0.00042920     0.85700
O524        O  0.43311534  0.72564078  0.48429355    -0.76400
C525        C  0.99959296  0.85914492  0.00012257     0.85800
C526        C  0.99823943  0.75000908  0.08103100     0.86100
O527        O  0.48114133  0.77268371  0.06764173    -0.78800
O528        O  0.01567467  0.83981074  0.26754563    -0.76300
C529        C  0.99893059  0.74865183  0.33104455     0.84700
O530        O  0.06753876  0.72584798  0.23277330    -0.77400
O531        O  0.48245774  0.65740399  0.26731541    -0.78900
O532        O  0.43028817  0.77492487  0.23638294    -0.78700
O533        O  0.48141120  0.84205179  0.23369203    -0.77300
Zn534      Zn  0.02331251  0.78289316  0.27450356     1.55700
O535        O  0.43067576  0.72566951  0.26837272    -0.78700
Cd536      Cd  0.47336991  0.78421123  0.22750235     1.59700
Cd537      Cd  0.02450283  0.71600487  0.22594283     1.59600
O538        O  0.48075076  0.77255637  0.18377690    -0.78700
O539        O  0.99915939  0.74998598  0.25107718    -1.89200
Cd540      Cd  0.47400454  0.71528269  0.27506704     1.59900
O541        O  0.01601984  0.72783202  0.18266234    -0.78700
O542        O  0.48204537  0.72553670  0.31857886    -0.77300
C543        C  0.07974028  0.74954909  0.24981688     0.85200
C544        C  0.99892663  0.85880825  0.25063790     0.84900
O545        O  0.01529345  0.77155700  0.31694430    -0.76300
C546        C  0.41731856  0.75039810  0.25263265     0.85700
O547        O  0.06557030  0.77264538  0.26661984    -0.76400
C548        C  0.49819593  0.75022614  0.17000166     0.85800
C549        C  0.50012026  0.63980219  0.24997631     0.86100
O550        O  0.01732110  0.65782441  0.23275330    -0.78800
O551        O  0.26775674  0.84019521  0.01721990    -0.76300
C552        C  0.25020895  0.75035916  0.08095751     0.84700
O553        O  0.31887439  0.72566778  0.48243663    -0.77400
O554        O  0.23374484  0.65857730  0.01804557    -0.78900
O555        O  0.18182562  0.77465469  0.48508158    -0.78700
O556        O  0.23250154  0.84264486  0.48445938    -0.77300
Zn557      Zn  0.27521659  0.78327437  0.02420341     1.55700
O558        O  0.18206360  0.72614186  0.01772537    -0.78700
Cd559      Cd  0.22500313  0.78491160  0.47732446     1.59700
Cd560      Cd  0.27576481  0.71639666  0.47593551     1.59600
O561        O  0.23308668  0.77401617  0.43363968    -0.78700
O562        O  0.25065059  0.75067582  0.00100714    -1.89200
Cd563      Cd  0.22528977  0.71649310  0.02521615     1.59900
O564        O  0.26723464  0.72776620  0.43260264    -0.78700
O565        O  0.23289340  0.72765719  0.06867175    -0.77300
C566        C  0.33136212  0.74911094  0.99944147     0.85200
C567        C  0.25037380  0.85928790  0.00106543     0.84900
O568        O  0.26708805  0.77240424  0.06668846    -0.76300
C569        C  0.16878799  0.75018774  0.50133519     0.85700
O570        O  0.31745076  0.77241279  0.01631313    -0.76400
C571        C  0.24997421  0.75091040  0.41990689     0.85800
C572        C  0.25114975  0.64073180  0.50059186     0.86100
O573        O  0.26836131  0.65849319  0.48321982    -0.78800
O574        O  0.26559561  0.84020925  0.26749189    -0.76300
C575        C  0.24776710  0.75002173  0.33104262     0.84700
O576        O  0.31780512  0.72573998  0.23458742    -0.77400
O577        O  0.23165852  0.65852244  0.26779289    -0.78900
O578        O  0.18049436  0.77454354  0.23414192    -0.78700
O579        O  0.23108308  0.84239460  0.23390841    -0.77300
Zn580      Zn  0.27303415  0.78345338  0.27472961     1.55700
O581        O  0.18021150  0.72676084  0.26743925    -0.78700
Cd582      Cd  0.22376551  0.78456536  0.22685468     1.59700
Cd583      Cd  0.27483396  0.71631576  0.22678397     1.59600
O584        O  0.23291639  0.77358349  0.18330233    -0.78700
O585        O  0.24903642  0.75056388  0.25116423    -1.89200
Cd586      Cd  0.22332016  0.71645013  0.27504591     1.59900
O587        O  0.26757005  0.72799355  0.18317182    -0.78700
O588        O  0.23071760  0.72710475  0.31860852    -0.77300
C589        C  0.32980279  0.74963344  0.25163267     0.85200
C590        C  0.24865705  0.85917544  0.25077954     0.84900
O591        O  0.26445480  0.77247160  0.31695569    -0.76300
C592        C  0.16720228  0.75066009  0.25069710     0.85700
O593        O  0.31540585  0.77313139  0.26786801    -0.76400
C594        C  0.25049871  0.75095102  0.16999752     0.85800
C595        C  0.24957189  0.64064935  0.25090894     0.86100
O596        O  0.26716660  0.65837154  0.23391986    -0.78800
N597        N  0.50210657  0.95850474  0.46690143    -0.34400
N598        N  0.50009529  0.95819842  0.03374399    -0.55000
N599        N  0.50222318  0.54040008  0.03352036    -0.34400
N600        N  0.50017848  0.54087553  0.46675105    -0.55000
C601        C  0.49567230  0.92136215  0.47290503     0.29200
C602        C  0.49659752  0.96507650  0.43762020     0.29200
C603        C  0.49643832  0.53397207  0.06294631     0.29200
C604        C  0.49567945  0.57776018  0.02767541     0.29200
C605        C  0.50455727  0.92029458  0.02810686     0.37800
C606        C  0.50526031  0.96349601  0.06314847     0.37800
C607        C  0.50555093  0.53521679  0.43720780     0.37800
C608        C  0.50510205  0.57849816  0.47228369     0.37800
C609        C  0.48606640  0.90406997  0.44710084    -0.19700
C610        C  0.48675447  0.93155658  0.42490931    -0.19700
C611        C  0.48620048  0.56774216  0.07588420    -0.19700
C612        C  0.48561098  0.59527341  0.05370624    -0.19700
C613        C  0.51249276  0.90146400  0.05410896    -0.20800
C614        C  0.51285745  0.92876842  0.07621887    -0.20800
C615        C  0.51376945  0.56943718  0.42395205    -0.20800
C616        C  0.51359076  0.59677301  0.44608334    -0.20800
C617        C  0.49996893  0.90182971  0.50040101    -0.16100
C618        C  0.50144791  0.00003907  0.42190405    -0.16100
C619        C  0.50042036  0.59724867  0.50011995    -0.16100
C620        C  0.50139475  0.99887353  0.07854968    -0.16100
H621        H  0.47941131  0.87454207  0.44441689     0.16800
H622        H  0.48067463  0.92728947  0.40204743     0.16800
H623        H  0.47977295  0.57212968  0.09888157     0.16800
H624        H  0.47872903  0.62498215  0.05654984     0.16800
H625        H  0.51741217  0.87111288  0.05696683     0.15100
H626        H  0.51802637  0.92357089  0.09924784     0.15100
H627        H  0.51931794  0.57425269  0.40080385     0.15100
H628        H  0.51902179  0.62677236  0.44311021     0.15100
H629        H  0.51262601  0.97675037  0.48129119     0.28300
H630        H  0.51307052  0.52187125  0.01890490     0.28300
N631        N  0.00238244  0.95813311  0.28370696    -0.35200
N632        N  0.00066179  0.54051682  0.28355400    -0.55000
N633        N  0.00304140  0.54037118  0.21673159    -0.34400
N634        N  0.00070710  0.95807574  0.21695086    -0.55000
C635        C  0.99654357  0.96482332  0.31308592     0.29200
C636        C  0.99563521  0.92110504  0.27798032     0.29200
C637        C  0.99666261  0.57778845  0.22261122     0.29200
C638        C  0.99748095  0.53404099  0.18747936     0.29200
C639        C  0.00574226  0.53488801  0.31298992     0.37800
C640        C  0.00544780  0.57819436  0.27781233     0.37800
C641        C  0.00507998  0.92013318  0.22257303     0.37800
C642        C  0.00599114  0.96343988  0.18735859     0.37800
C643        C  0.98614868  0.93151614  0.32613336    -0.19700
C644        C  0.98546554  0.90403004  0.30405483    -0.19700
C645        C  0.98708144  0.59550079  0.19674887    -0.19700
C646        C  0.98770620  0.56799320  0.17465431    -0.19700
C647        C  0.01365167  0.56915735  0.32595247    -0.20800
C648        C  0.01355113  0.59651392  0.30376102    -0.20800
C649        C  0.01318468  0.90137679  0.19638627    -0.20800
C650        C  0.01367040  0.92873355  0.17417724    -0.20800
C651        C  0.00151635  0.99973429  0.32852762    -0.16100
C652        C  0.00004448  0.90154504  0.25042044    -0.16100
C653        C  0.00210570  0.99882935  0.17192333    -0.16100
C654        C  0.00087481  0.59704542  0.25010229    -0.16100
H655        H  0.97964136  0.92741930  0.34912938     0.16800
H656        H  0.97840444  0.87466228  0.30698487     0.16800
H657        H  0.98043998  0.62529474  0.19396667     0.16800
H658        H  0.98159026  0.57252235  0.15178747     0.16800
H659        H  0.01885962  0.57402045  0.34896853     0.15100
H660        H  0.01874376  0.62657904  0.30653073     0.15100
H661        H  0.01809075  0.87102493  0.19346392     0.15100
H662        H  0.01897736  0.92358721  0.15100924     0.15100
H663        H  0.01326208  0.97619292  0.26903634     0.28300
H664        H  0.01347320  0.52165485  0.23119081     0.28300
N665        N  0.24950182  0.95884298  0.46780310    -0.34400
N666        N  0.25179156  0.54130759  0.46721195    -0.55000
N667        N  0.24927456  0.54136650  0.03414174    -0.34400
N668        N  0.25138323  0.95873743  0.03461105    -0.55000
C669        C  0.25462048  0.96484689  0.43819418     0.29200
C670        C  0.25500381  0.92118087  0.47358095     0.29200
C671        C  0.25510981  0.57871121  0.02814635     0.29200
C672        C  0.25437135  0.53509860  0.06355972     0.29200
C673        C  0.24727633  0.53580516  0.43769265     0.37800
C674        C  0.24749849  0.57932392  0.47256363     0.37800
C675        C  0.24729125  0.92082555  0.02943660     0.37800
C676        C  0.24691039  0.96440194  0.06429709     0.37800
C677        C  0.26322274  0.93044335  0.42501682    -0.19700
C678        C  0.26359787  0.90301796  0.44725756    -0.19700
C679        C  0.26386145  0.59643498  0.05414651    -0.19700
C680        C  0.26324969  0.56904871  0.07641844    -0.19700
C681        C  0.24040526  0.57053901  0.42419137    -0.20800
C682        C  0.24039365  0.59800461  0.44620165    -0.20800
C683        C  0.24036617  0.90237003  0.05606974    -0.20800
C684        C  0.24026071  0.92986561  0.07806546    -0.20800
C685        C  0.25061176  0.00014422  0.42256239    -0.16100
C686        C  0.25091522  0.90204184  0.00143102    -0.16100
C687        C  0.25023585  0.99995223  0.07930789    -0.16100
C688        C  0.25121952  0.59798759  0.00041302    -0.16100
H689        H  0.26864202  0.92555348  0.40177247     0.16800
H690        H  0.26941979  0.87295209  0.44425453     0.16800
H691        H  0.26997974  0.62616705  0.05691058     0.16800
H692        H  0.26876208  0.57364075  0.09945570     0.16800
H693        H  0.23580132  0.57557367  0.40094315     0.15100
H694        H  0.23564816  0.62834440  0.44302699     0.15100
H695        H  0.23584734  0.87215426  0.05943738     0.15100
H696        H  0.23578866  0.92496527  0.10149813     0.15100
H697        H  0.23983327  0.97802251  0.48272110     0.28300
H698        H  0.23947684  0.52267326  0.01956453     0.28300
N699        N  0.25195244  0.95842827  0.28426134    -0.34400
N700        N  0.24965849  0.95876002  0.21743635    -0.55000
N701        N  0.25200663  0.54127013  0.21753275    -0.34400
N702        N  0.24982543  0.54106405  0.28442701    -0.55000
C703        C  0.24595445  0.92112955  0.27858465     0.29200
C704        C  0.24673571  0.96472850  0.31381547     0.29200
C705        C  0.24687255  0.53526054  0.18813949     0.29200
C706        C  0.24633976  0.57888272  0.22337323     0.29200
C707        C  0.25368334  0.92067684  0.22274642     0.37800
C708        C  0.25412227  0.96425072  0.18772117     0.37800
C709        C  0.25408359  0.53543252  0.31402351     0.37800
C710        C  0.25372867  0.57903120  0.27901632     0.37800
C711        C  0.23704377  0.90346330  0.30493142    -0.19700
C712        C  0.23768821  0.93083555  0.32708274    -0.19700
C713        C  0.23820514  0.56964180  0.17513147    -0.19700
C714        C  0.23773397  0.59704502  0.19728699    -0.19700
C715        C  0.26065574  0.90197806  0.19618318    -0.20800
C716        C  0.26078387  0.92947334  0.17408668    -0.20800
C717        C  0.26043759  0.57002478  0.32748878    -0.20800
C718        C  0.26034584  0.59752919  0.30540568    -0.20800
C719        C  0.24960606  0.90192163  0.25072857    -0.16100
C720        C  0.25079211  0.99988698  0.32927153    -0.16100
C721        C  0.25002910  0.59789772  0.25110098    -0.16100
C722        C  0.25075238  0.99991347  0.17255785    -0.16100
H723        H  0.23073047  0.87380354  0.30799821     0.16800
H724        H  0.23201125  0.92629857  0.35030136     0.16800
H725        H  0.23271482  0.57450600  0.15207568     0.16800
H726        H  0.23174683  0.62705943  0.19439603     0.16800
H727        H  0.26514154  0.87157936  0.19292409     0.15100
H728        H  0.26525161  0.92440966  0.15067259     0.15100
H729        H  0.26467808  0.57496826  0.35078631     0.15100
H730        H  0.26464539  0.62779639  0.30855803     0.15100
H731        H  0.26180315  0.97709307  0.26929973     0.28300
H732        H  0.26162388  0.52209393  0.23220630     0.28300
C733        C  0.25061175  0.99979576  0.38957295    -0.11100
C734        C  0.25063088  0.99966456  0.36226594    -0.12700
C735        C  0.25035575  0.00020129  0.11228491    -0.11100
C736        C  0.25049904  0.00017041  0.13958243    -0.12700
C737        C  0.50144105  0.99989460  0.38888273    -0.11100
C738        C  0.00142525  0.99970090  0.36155110    -0.12700
C739        C  0.50159639  0.99897828  0.11157110    -0.11100
C740        C  0.00185638  0.99889005  0.13890091    -0.12700
C741        C  0.24929254  0.75073204  0.38867804    -0.11100
C742        C  0.24841483  0.75042524  0.36227122    -0.12700
C743        C  0.25092442  0.75117160  0.13869659    -0.11100
C744        C  0.25076586  0.75103794  0.11223310    -0.12700
C745        C  0.38648548  0.75038469  0.25292761    -0.11100
C746        C  0.36059971  0.75012659  0.25254152    -0.12700
C747        C  0.11052954  0.75020991  0.25013772    -0.11100
C748        C  0.13640250  0.75056670  0.25041131    -0.12700
C749        C  0.36217520  0.74920087  0.99960275    -0.11100
C750        C  0.38806347  0.74923026  0.49974481    -0.12700
C751        C  0.11210333  0.74892591  0.00074676    -0.11100
C752        C  0.13798052  0.74953695  0.50106004    -0.12700
C753        C  0.99957692  0.74884496  0.36233127    -0.11100
C754        C  0.50008769  0.74897283  0.38878870    -0.12700
C755        C  0.99778267  0.75032015  0.11229808    -0.11100
C756        C  0.49779446  0.75035281  0.13874642    -0.12700
O757        O  0.48377454  0.72704848  0.93419340    -0.76300
C758        C  0.50047147  0.64005708  0.00055749     0.84700
O759        O  0.43099216  0.77437530  0.51645956    -0.77400
O760        O  0.01577912  0.72708312  0.56797504    -0.78900
O761        O  0.06826966  0.77259839  0.98368757    -0.78700
O762        O  0.01774914  0.77211776  0.93252069    -0.77300
Zn763      Zn  0.47554162  0.71568428  0.97661709     1.55700
O764        O  0.06800092  0.72484213  0.51701051    -0.78700
Cd765      Cd  0.02519394  0.78298642  0.97601751     1.59700
Cd766      Cd  0.47389819  0.78378511  0.52402630     1.59600
O767        O  0.01721750  0.84105173  0.98307799    -0.78700
O768        O  0.49951671  0.74893381  0.99997349    -1.89200
Cd769      Cd  0.02469661  0.71511291  0.52456096     1.59900
O770        O  0.48180948  0.84166196  0.51702539    -0.78700
O771        O  0.01733948  0.65710127  0.51804383    -0.77300
C772        C  0.41886300  0.74974165  0.00018031     0.85200
C773        C  0.50058283  0.74936684  0.92007687     0.84900
O774        O  0.48372541  0.65881959  0.98348259    -0.76300
C775        C  0.08129092  0.74871073  0.50042953     0.85700
O776        O  0.43311452  0.72564239  0.98429396    -0.76400
C777        C  0.99959311  0.85914374  0.50012249     0.85800
C778        C  0.99823966  0.75000813  0.58103102     0.86100
O779        O  0.48114155  0.77268248  0.56764158    -0.78800
O780        O  0.01567451  0.83981054  0.76754575    -0.76300
C781        C  0.99893024  0.74865167  0.83104466     0.84700
O782        O  0.06753877  0.72584841  0.73277319    -0.77400
O783        O  0.48245782  0.65740365  0.76731521    -0.78900
O784        O  0.43028803  0.77492463  0.73638300    -0.78700
O785        O  0.48141104  0.84205161  0.73369215    -0.77300
Zn786      Zn  0.02331232  0.78289309  0.77450369     1.55700
O787        O  0.43067573  0.72566924  0.76837278    -0.78700
Cd788      Cd  0.47336976  0.78421102  0.72750241     1.59700
Cd789      Cd  0.02450286  0.71600491  0.72594288     1.59600
O790        O  0.48075073  0.77255614  0.68377696    -0.78700
O791        O  0.99915929  0.74998585  0.75107724    -1.89200
Cd792      Cd  0.47400453  0.71528227  0.77506707     1.59900
O793        O  0.01601969  0.72783183  0.68266243    -0.78700
O794        O  0.48204526  0.72553625  0.81857891    -0.77300
C795        C  0.07974023  0.74954942  0.74981690     0.85200
C796        C  0.99892647  0.85880804  0.75063804     0.84900
O797        O  0.01529303  0.77155700  0.81694446    -0.76300
C798        C  0.41731848  0.75039785  0.75263276     0.85700
O799        O  0.06557018  0.77264541  0.76662005    -0.76400
C800        C  0.49819587  0.75022586  0.67000172     0.85800
C801        C  0.50012042  0.63980201  0.74997609     0.86100
O802        O  0.01732128  0.65782437  0.73275323    -0.78800
O803        O  0.26775793  0.84019488  0.51721956    -0.76300
C804        C  0.25021004  0.75035934  0.58095741     0.84700
O805        O  0.31887381  0.72566897  0.98243664    -0.77400
O806        O  0.23374553  0.65857705  0.51804582    -0.78900
O807        O  0.18182502  0.77465532  0.98508159    -0.78700
O808        O  0.23250097  0.84264520  0.98445903    -0.77300
Zn809      Zn  0.27521768  0.78327394  0.52420320     1.55700
O810        O  0.18206446  0.72614162  0.51772568    -0.78700
Cd811      Cd  0.22500251  0.78491196  0.97732430     1.59700
Cd812      Cd  0.27576432  0.71639726  0.97593556     1.59600
O813        O  0.23308582  0.77401624  0.93363954    -0.78700
O814        O  0.25065134  0.75067543  0.50100716    -1.89200
Cd815      Cd  0.22529064  0.71649286  0.52521628     1.59900
O816        O  0.26723391  0.72776644  0.93260265    -0.78700
O817        O  0.23289450  0.72765724  0.56867176    -0.77300
C818        C  0.33136294  0.74910975  0.49944128     0.85200
C819        C  0.25037468  0.85928756  0.50106543     0.84900
O820        O  0.26708918  0.77240425  0.56668828    -0.76300
C821        C  0.16878727  0.75018826  0.00133500     0.85700
O822        O  0.31745181  0.77241197  0.51631281    -0.76400
C823        C  0.24997333  0.75091038  0.91990683     0.85800
C824        C  0.25114931  0.64073215  0.00059180     0.86100
O825        O  0.26836097  0.65849366  0.98321992    -0.78800
O826        O  0.26559569  0.84020928  0.76749199    -0.76300
C827        C  0.24776669  0.75002165  0.83104252     0.84700
O828        O  0.31780503  0.72573970  0.73458764    -0.77400
O829        O  0.23165815  0.65852252  0.76779253    -0.78900
O830        O  0.18049438  0.77454387  0.73414152    -0.78700
O831        O  0.23108335  0.84239477  0.73390829    -0.77300
Zn832      Zn  0.27303412  0.78345339  0.77472966     1.55700
O833        O  0.18021140  0.72676117  0.76743886    -0.78700
Cd834      Cd  0.22376560  0.78456565  0.72685437     1.59700
Cd835      Cd  0.27483387  0.71631581  0.72678388     1.59600
O836        O  0.23291684  0.77358406  0.68330207    -0.78700
O837        O  0.24903638  0.75056405  0.75116406    -1.89200
Cd838      Cd  0.22331998  0.71645024  0.77504556     1.59900
O839        O  0.26757030  0.72799384  0.68317178    -0.78700
O840        O  0.23071725  0.72710478  0.81860822    -0.77300
C841        C  0.32980270  0.74963314  0.75163290     0.85200
C842        C  0.24865723  0.85917552  0.75077956     0.84900
O843        O  0.26445456  0.77247151  0.81695578    -0.76300
C844        C  0.16720224  0.75066046  0.75069670     0.85700
O845        O  0.31540577  0.77313123  0.76786813    -0.76400
C846        C  0.25049920  0.75095153  0.66999738     0.85800
C847        C  0.24957160  0.64064942  0.75090870     0.86100
O848        O  0.26716639  0.65837160  0.73391971    -0.78800
N849        N  0.50210671  0.95850580  0.96690144    -0.34400
N850        N  0.50009509  0.95819722  0.53374401    -0.55000
N851        N  0.50222319  0.54039901  0.53352043    -0.34400
N852        N  0.50017829  0.54087656  0.96675106    -0.55000
C853        C  0.49567227  0.92136334  0.97290514     0.29200
C854        C  0.49659753  0.96507754  0.93762027     0.29200
C855        C  0.49643826  0.53397105  0.56294636     0.29200
C856        C  0.49567977  0.57775918  0.52767548     0.29200
C857        C  0.50455693  0.92029333  0.52810690     0.37800
C858        C  0.50525993  0.96349479  0.56314851     0.37800
C859        C  0.50555087  0.53521776  0.93720783     0.37800
C860        C  0.50510147  0.57849931  0.97228360     0.37800
C861        C  0.48606613  0.90407114  0.94710104    -0.19700
C862        C  0.48675418  0.93155768  0.92490948    -0.19700
C863        C  0.48620071  0.56774130  0.57588426    -0.19700
C864        C  0.48561145  0.59527257  0.55370631    -0.19700
C865        C  0.51249219  0.90146270  0.55410907    -0.20800
C866        C  0.51285684  0.92876714  0.57621895    -0.20800
C867        C  0.51376908  0.56943822  0.92395201    -0.20800
C868        C  0.51358998  0.59677422  0.94608320    -0.20800
C869        C  0.49996900  0.90183089  0.00040106    -0.16100
C870        C  0.50144800  0.00003998  0.92190402    -0.16100
C871        C  0.50041979  0.59724977  0.00011988    -0.16100
C872        C  0.50139448  0.99887237  0.57854970    -0.16100
H873        H  0.47941096  0.87454326  0.94441718     0.16800
H874        H  0.48067413  0.92729059  0.90204767     0.16800
H875        H  0.47977328  0.57212894  0.59888164     0.16800
H876        H  0.47872980  0.62498143  0.55654994     0.16800
H877        H  0.51741160  0.87111159  0.55696698     0.15100
H878        H  0.51802569  0.92356957  0.59924796     0.15100
H879        H  0.51931753  0.57425367  0.90080379     0.15100
H880        H  0.51902070  0.62677366  0.94310995     0.15100
H881        H  0.51262647  0.97675150  0.98129120     0.28300
H882        H  0.51307043  0.52187006  0.51890498     0.28300
N883        N  0.00238269  0.95813299  0.78370700    -0.35200
N884        N  0.00066212  0.54051674  0.78355392    -0.55000
N885        N  0.00304165  0.54037089  0.71673146    -0.34400
N886        N  0.00070728  0.95807534  0.71695091    -0.55000
C887        C  0.99654389  0.96482330  0.81308596     0.29200
C888        C  0.99563533  0.92110493  0.77798040     0.29200
C889        C  0.99666283  0.57778817  0.72261103     0.29200
C890        C  0.99748108  0.53404054  0.68747927     0.29200
C891        C  0.00574269  0.53488802  0.81298984     0.37800
C892        C  0.00544820  0.57819423  0.77781213     0.37800
C893        C  0.00508007  0.92013279  0.72257312     0.37800
C894        C  0.00599128  0.96343938  0.68735864     0.37800
C895        C  0.98614893  0.93151618  0.82613346    -0.19700
C896        C  0.98546569  0.90403004  0.80405496    -0.19700
C897        C  0.98708151  0.59550038  0.69674869    -0.19700
C898        C  0.98770624  0.56799269  0.67465418    -0.19700
C899        C  0.01365218  0.56915740  0.82595228    -0.20800
C900        C  0.01355160  0.59651387  0.80376076    -0.20800
C901        C  0.01318475  0.90137629  0.69638639    -0.20800
C902        C  0.01367058  0.92873303  0.67417735    -0.20800
C903        C  0.00151674  0.99973432  0.82852758    -0.16100
C904        C  0.00004446  0.90154480  0.75042054    -0.16100
C905        C  0.00210578  0.99882880  0.67192334    -0.16100
C906        C  0.00087508  0.59704523  0.75010208    -0.16100
H907        H  0.97964162  0.92741938  0.84912949     0.16800
H908        H  0.97840456  0.87466230  0.80698503     0.16800
H909        H  0.98044000  0.62529430  0.69396646     0.16800
H910        H  0.98159026  0.57252173  0.65178734     0.16800
H911        H  0.01886020  0.57402061  0.84896831     0.15100
H912        H  0.01874423  0.62657900  0.80653038     0.15100
H913        H  0.01809076  0.87102440  0.69346408     0.15100
H914        H  0.01897764  0.92358664  0.65100938     0.15100
H915        H  0.01326236  0.97619275  0.76903633     0.28300
H916        H  0.01347354  0.52165463  0.73119068     0.28300
N917        N  0.24950122  0.95884337  0.96780307    -0.34400
N918        N  0.25179137  0.54130795  0.96721187    -0.55000
N919        N  0.24927499  0.54136615  0.53414175    -0.34400
N920        N  0.25138392  0.95873707  0.53461107    -0.55000
C921        C  0.25462009  0.96484725  0.93819414     0.29200
C922        C  0.25500318  0.92118121  0.97358096     0.29200
C923        C  0.25511024  0.57871088  0.52814636     0.29200
C924        C  0.25437179  0.53509828  0.56355974     0.29200
C925        C  0.24727622  0.53580558  0.93769254     0.37800
C926        C  0.24749828  0.57932427  0.97256357     0.37800
C927        C  0.24729217  0.92082514  0.52943664     0.37800
C928        C  0.24691112  0.96440155  0.56429711     0.37800
C929        C  0.26322239  0.93044370  0.92501686    -0.19700
C930        C  0.26359742  0.90301832  0.94725763    -0.19700
C931        C  0.26386188  0.59643464  0.55414651    -0.19700
C932        C  0.26325006  0.56904840  0.57641845    -0.19700
C933        C  0.24040525  0.57053946  0.92419126    -0.20800
C934        C  0.24039353  0.59800500  0.94620160    -0.20800
C935        C  0.24036731  0.90236954  0.55606982    -0.20800
C936        C  0.24026177  0.92986512  0.57806553    -0.20800
C937        C  0.25061160  0.00014465  0.92256232    -0.16100
C938        C  0.25091607  0.90204148  0.50143103    -0.16100
C939        C  0.25023635  0.99995192  0.57930789    -0.16100
C940        C  0.25121984  0.59798726  0.50041306    -0.16100
H941        H  0.26864179  0.92555380  0.90177256     0.16800
H942        H  0.26941937  0.87295245  0.94425462     0.16800
H943        H  0.26998019  0.62616670  0.55691063     0.16800
H944        H  0.26876239  0.57364043  0.59945572     0.16800
H945        H  0.23580143  0.57557419  0.90094302     0.15100
H946        H  0.23564804  0.62834480  0.94302700     0.15100
H947        H  0.23584867  0.87215371  0.55943747     0.15100
H948        H  0.23578986  0.92496475  0.60149822     0.15100
H949        H  0.23983270  0.97802276  0.98272089     0.28300
H950        H  0.23947728  0.52267299  0.51956468     0.28300
N951        N  0.25195271  0.95842837  0.78426129    -0.34400
N952        N  0.24965875  0.95876005  0.71743636    -0.55000
N953        N  0.25200667  0.54127014  0.71753265    -0.34400
N954        N  0.24982542  0.54106421  0.78442690    -0.55000
C955        C  0.24595466  0.92112963  0.77858468     0.29200
C956        C  0.24673588  0.96472868  0.81381543     0.29200
C957        C  0.24687280  0.53526049  0.68813936     0.29200
C958        C  0.24633966  0.57888271  0.72337307     0.29200
C959        C  0.25368369  0.92067689  0.72274651     0.37800
C960        C  0.25412270  0.96425069  0.68772120     0.37800
C961        C  0.25408366  0.53543274  0.81402339     0.37800
C962        C  0.25372843  0.57903139  0.77901618     0.37800
C963        C  0.23704384  0.90346348  0.80493145    -0.19700
C964        C  0.23768826  0.93083581  0.82708272    -0.19700
C965        C  0.23820539  0.56964173  0.67513125    -0.19700
C966        C  0.23773401  0.59704498  0.69728675    -0.19700
C967        C  0.26065637  0.90197808  0.69618337    -0.20800
C968        C  0.26078453  0.92947330  0.67408683    -0.20800
C969        C  0.26043756  0.57002506  0.82748860    -0.20800
C970        C  0.26034560  0.59752946  0.80540549    -0.20800
C971        C  0.24960630  0.90192171  0.75072863    -0.16100
C972        C  0.25079218  0.99988721  0.82927144    -0.16100
C973        C  0.25002885  0.59789780  0.75110081    -0.16100
C974        C  0.25075266  0.99991337  0.67255780    -0.16100
H975        H  0.23073046  0.87380377  0.80799825     0.16800
H976        H  0.23201119  0.92629897  0.85030133     0.16800
H977        H  0.23271530  0.57450592  0.65207539     0.16800
H978        H  0.23174691  0.62705939  0.69439574     0.16800
H979        H  0.26514232  0.87157940  0.69292439     0.15100
H980        H  0.26525238  0.92440951  0.65067278     0.15100
H981        H  0.26467805  0.57496857  0.85078613     0.15100
H982        H  0.26464505  0.62779671  0.80855783     0.15100
H983        H  0.26180340  0.97709304  0.76929972     0.28300
H984        H  0.26162393  0.52209393  0.73220633     0.28300
C985        C  0.25061176  0.99979619  0.88957287    -0.11100
C986        C  0.25063093  0.99966483  0.86226586    -0.12700
C987        C  0.25035618  0.00020104  0.61228488    -0.11100
C988        C  0.25049937  0.00017019  0.63958239    -0.12700
C989        C  0.50144125  0.99989526  0.88888272    -0.11100
C990        C  0.00142554  0.99970120  0.86155108    -0.12700
C991        C  0.50159623  0.99897725  0.61157110    -0.11100
C992        C  0.00185637  0.99888930  0.63890092    -0.12700
C993        C  0.24929158  0.75073176  0.88867797    -0.11100
C994        C  0.24841409  0.75042505  0.86227114    -0.12700
C995        C  0.25092524  0.75117226  0.63869648    -0.11100
C996        C  0.25076683  0.75103851  0.61223299    -0.12700
C997        C  0.38648540  0.75038442  0.75292785    -0.11100
C998        C  0.36059962  0.75012623  0.75254185    -0.12700
C999        C  0.11052949  0.75021048  0.75013758    -0.11100
C1000       C  0.13640246  0.75056719  0.75041094    -0.12700
C1001       C  0.36217601  0.74919929  0.49960247    -0.11100
C1002       C  0.38806267  0.74923204  0.99974514    -0.12700
C1003       C  0.11210402  0.74892509  0.50074706    -0.11100
C1004       C  0.13797981  0.74953769  0.00105976    -0.12700
C1005       C  0.99957626  0.74884505  0.86233138    -0.11100
C1006       C  0.50008672  0.74897337  0.88878881    -0.12700
C1007       C  0.99778272  0.75031938  0.61229811    -0.11100
C1008       C  0.49779432  0.75035231  0.63874647    -0.12700
O1009       O  0.98321609  0.22708403  0.43433219    -0.76300
C1010       C  0.00046347  0.14005594  0.50055089     0.84700
O1011       O  0.93115201  0.27434371  0.01710192    -0.77400
O1012       O  0.51648086  0.22709591  0.06779190    -0.78900
O1013       O  0.56818754  0.27259133  0.48304449    -0.78700
O1014       O  0.51717318  0.27216661  0.43237095    -0.77300
Zn1015     Zn  0.97536963  0.21569334  0.47682084     1.55700
O1016       O  0.56818035  0.22476811  0.01630902    -0.78700
Cd1017     Cd  0.52503288  0.28299089  0.47578576     1.59700
Cd1018     Cd  0.97413453  0.28375066  0.02425165     1.59600
O1019       O  0.51711549  0.34105411  0.48293819    -0.78700
O1020       O  0.99955297  0.24892127  0.49995797    -1.89200
Cd1021     Cd  0.52494245  0.21508537  0.02429861     1.59900
O1022       O  0.98195233  0.34163068  0.01715731    -0.78700
O1023       O  0.51747393  0.15708610  0.01789333    -0.77300
C1024       C  0.91889019  0.24974737  0.50089738     0.85200
C1025       C  0.99989236  0.24943418  0.42007685     0.84900
O1026       O  0.98359711  0.15882682  0.48360822    -0.76300
C1027       C  0.58134098  0.24866475  0.99964111     0.85700
O1028       O  0.93301331  0.22567240  0.48487118    -0.76400
C1029       C  0.49960506  0.35913332  0.00011827     0.85800
C1030       C  0.49906225  0.25002887  0.08100877     0.86100
O1031       O  0.98181644  0.27266647  0.06778254    -0.78800
O1032       O  0.51559325  0.33984371  0.26767160    -0.76300
C1033       C  0.49823578  0.24876599  0.33104995     0.84700
O1034       O  0.56772212  0.22582015  0.23346964    -0.77400
O1035       O  0.98239364  0.15743887  0.26719693    -0.78900
O1036       O  0.93047098  0.27491859  0.23570855    -0.78700
O1037       O  0.98157910  0.34206509  0.23354802    -0.77300
Zn1038     Zn  0.52316116  0.28293921  0.27472956     1.55700
O1039       O  0.93061528  0.22569092  0.26772540    -0.78700
Cd1040     Cd  0.97362578  0.28422920  0.22725004     1.59700
Cd1041     Cd  0.52476372  0.21602757  0.22618659     1.59600
O1042       O  0.98144404  0.27259563  0.18359255    -0.78700
O1043       O  0.49921373  0.25002894  0.25107662    -1.89200
Cd1044     Cd  0.97386636  0.21532818  0.27483841     1.59900
O1045       O  0.51673780  0.22790116  0.18281610    -0.78700
O1046       O  0.98147565  0.22562952  0.31843028    -0.77300
C1047       C  0.57978839  0.24953227  0.25060930     0.85200
C1048       C  0.49896576  0.35883081  0.25063126     0.84900
O1049       O  0.51472946  0.27164982  0.31709648    -0.76300
C1050       C  0.91738104  0.25039576  0.25185633     0.85700
O1051       O  0.56549006  0.27266890  0.26726591    -0.76400
C1052       C  0.99903402  0.25029613  0.16998289     0.85800
C1053       C  0.00016029  0.13982804  0.24997726     0.86100
O1054       O  0.51747860  0.15784296  0.23287857    -0.78800
O1055       O  0.76763521  0.34018527  0.01737475    -0.76300
C1056       C  0.74946727  0.25040404  0.08095112     0.84700
O1057       O  0.81904437  0.22564596  0.48310045    -0.77400
O1058       O  0.73365164  0.15857103  0.01791097    -0.78900
O1059       O  0.68200439  0.27458992  0.48437503    -0.78700
O1060       O  0.73264999  0.34261968  0.48430690    -0.77300
Zn1061     Zn  0.77503671  0.28327031  0.02443575     1.55700
O1062       O  0.68197844  0.22611255  0.01705099    -0.78700
Cd1063     Cd  0.72525204  0.28487912  0.47705671     1.59700
Cd1064     Cd  0.77601736  0.21637054  0.47618326     1.59600
O1065       O  0.73380509  0.27400690  0.43344860    -0.78700
O1066       O  0.75068397  0.25066596  0.00100144    -1.89200
Cd1067     Cd  0.72511740  0.21648566  0.02496809     1.59900
O1068       O  0.76794737  0.22774549  0.43275907    -0.78700
O1069       O  0.73227179  0.22769301  0.06849965    -0.77300
C1070       C  0.83139108  0.24911985  0.00019060     0.85200
C1071       C  0.75037977  0.35927374  0.00107292     0.84900
O1072       O  0.76649201  0.27241857  0.06684274    -0.76300
C1073       C  0.66883780  0.25013677  0.50052943     0.85700
O1074       O  0.81734611  0.27243397  0.01693753    -0.76400
C1075       C  0.75083112  0.25091061  0.41988587     0.85800
C1076       C  0.75118733  0.14072247  0.50060062     0.86100
O1077       O  0.76853396  0.15847303  0.48337079    -0.78800
O1078       O  0.76578368  0.34021558  0.26732443    -0.76300
C1079       C  0.74864710  0.24998221  0.33102413     0.84700
O1080       O  0.81772779  0.22576162  0.23389523    -0.77400
O1081       O  0.73185013  0.15853979  0.26792771    -0.78900
O1082       O  0.68039712  0.27455131  0.23482233    -0.78700
O1083       O  0.73098816  0.34240760  0.23405363    -0.77300
Zn1084     Zn  0.77330602  0.28346695  0.27446558     1.55700
O1085       O  0.68040351  0.22678776  0.26813746    -0.78700
Cd1086     Cd  0.72359265  0.28457926  0.22709809     1.59700
Cd1087     Cd  0.77467079  0.21633250  0.22651818     1.59600
O1088       O  0.73229251  0.27358838  0.18346416    -0.78700
O1089       O  0.74909277  0.25057423  0.25114855    -1.89200
Cd1090     Cd  0.72360044  0.21646424  0.27529172     1.59900
O1091       O  0.76695732  0.22800982  0.18299425    -0.78700
O1092       O  0.73147123  0.22707481  0.31876528    -0.77300
C1093       C  0.82986499  0.24965926  0.25082903     0.85200
C1094       C  0.74870272  0.35918102  0.25076843     0.84900
O1095       O  0.76518007  0.27246383  0.31677200    -0.76300
C1096       C  0.66724757  0.25067567  0.25150615     0.85700
O1097       O  0.81560012  0.27315904  0.26718069    -0.76400
C1098       C  0.74974815  0.25095080  0.16999120     0.85800
C1099       C  0.74962177  0.14066056  0.25088824     0.86100
O1100       O  0.76707926  0.15838316  0.23374415    -0.78800
N1101       N  0.00208786  0.45850089  0.46690752    -0.34400
N1102       N  0.00007665  0.45819001  0.03374261    -0.55000
N1103       N  0.00222545  0.04040775  0.03351960    -0.34400
N1104       N  0.00016289  0.04087889  0.46674378    -0.55000
C1105       C  0.99562504  0.42136886  0.47291669     0.29200
C1106       C  0.99655005  0.46508790  0.43763461     0.29200
C1107       C  0.99648058  0.03399052  0.06295524     0.29200
C1108       C  0.99570415  0.07777633  0.02768244     0.29200
C1109       C  0.00457834  0.42029513  0.02809860     0.37800
C1110       C  0.00527190  0.46349719  0.06313973     0.37800
C1111       C  0.00549743  0.03523719  0.43719193     0.37800
C1112       C  0.00503185  0.07851753  0.47226710     0.37800
C1113       C  0.98596035  0.40410247  0.44712682    -0.19700
C1114       C  0.98664863  0.43159262  0.42493572    -0.19700
C1115       C  0.98629837  0.06778099  0.07590703    -0.19700
C1116       C  0.98570077  0.09531090  0.05372957    -0.19700
C1117       C  0.01257443  0.40148241  0.05408837    -0.20800
C1118       C  0.01292968  0.42878689  0.07619927    -0.20800
C1119       C  0.01362699  0.06948686  0.42392149    -0.20800
C1120       C  0.01343647  0.09682198  0.44605078    -0.20800
C1121       C  0.99996375  0.40182333  0.50040022    -0.16100
C1122       C  0.00144590  0.50003570  0.42191481    -0.16100
C1123       C  0.00039650  0.09725496  0.50011484    -0.16100
C1124       C  0.00137822  0.49886607  0.07854395    -0.16100
H1125       H  0.97927062  0.37458816  0.44445065     0.16800
H1126       H  0.98053758  0.42734248  0.40208063     0.16800
H1127       H  0.97991055  0.07218338  0.09891314     0.16800
H1128       H  0.97885376  0.12503215  0.05658241     0.16800
H1129       H  0.01754110  0.37114346  0.05693865     0.15100
H1130       H  0.01813491  0.42360220  0.09922137     0.15100
H1131       H  0.01912649  0.07432317  0.40076510     0.15100
H1132       H  0.01880781  0.12684000  0.44306634     0.15100
H1133       H  0.01265071  0.47672203  0.48128079     0.28300
H1134       H  0.01303064  0.02186269  0.01888470     0.28300
N1135       N  0.50239486  0.45814386  0.28371239    -0.35200
N1136       N  0.50066935  0.04052986  0.28354734    -0.55000
N1137       N  0.50303746  0.04038245  0.21673776    -0.34400
N1138       N  0.50073621  0.45808634  0.21694389    -0.55000
C1139       C  0.49652934  0.46483278  0.31308700     0.29200
C1140       C  0.49563075  0.42112659  0.27797244     0.29200
C1141       C  0.49669845  0.07781540  0.22260695     0.29200
C1142       C  0.49749211  0.03405561  0.18748222     0.29200
C1143       C  0.50573354  0.03489693  0.31298582     0.37800
C1144       C  0.50544010  0.07821530  0.27781591     0.37800
C1145       C  0.50514460  0.42015537  0.22257636     0.37800
C1146       C  0.50604051  0.46345050  0.18735533     0.37800
C1147       C  0.48609718  0.43153796  0.32611873    -0.19700
C1148       C  0.48541681  0.40406006  0.30403315    -0.19700
C1149       C  0.48716082  0.09554283  0.19673417    -0.19700
C1150       C  0.48776713  0.06802718  0.17464536    -0.19700
C1151       C  0.51361557  0.06917286  0.32595856    -0.20800
C1152       C  0.51351136  0.09653740  0.30377360    -0.20800
C1153       C  0.51330016  0.40140822  0.19639962    -0.20800
C1154       C  0.51377164  0.42875771  0.17418487    -0.20800
C1155       C  0.50151250  0.49973359  0.32853571    -0.16100
C1156       C  0.50007713  0.40156603  0.25041751    -0.16100
C1157       C  0.50212211  0.49882692  0.17191591    -0.16100
C1158       C  0.50089818  0.09706912  0.25010167    -0.16100
H1159       H  0.47956422  0.42744480  0.34910845     0.16800
H1160       H  0.47833047  0.37470191  0.30695107     0.16800
H1161       H  0.48056040  0.12535125  0.19394245     0.16800
H1162       H  0.48167318  0.07256525  0.15177362     0.16800
H1163       H  0.51880967  0.07403558  0.34897729     0.15100
H1164       H  0.51868297  0.12660832  0.30655164     0.15100
H1165       H  0.51824650  0.37106619  0.19348538     0.15100
H1166       H  0.51910355  0.42361657  0.15102102     0.15100
H1167       H  0.51330541  0.47619056  0.26905661     0.28300
H1168       H  0.51343439  0.02164492  0.23120752     0.28300
N1169       N  0.74951141  0.45883243  0.46781765    -0.34400
N1170       N  0.75179742  0.04131412  0.46720575    -0.55000
N1171       N  0.74927648  0.04136472  0.03414635    -0.34400
N1172       N  0.75138229  0.45873390  0.03461511    -0.55000
C1173       C  0.75467288  0.46484443  0.43821760     0.29200
C1174       C  0.75505196  0.42118223  0.47360542     0.29200
C1175       C  0.75509567  0.07871532  0.02815933     0.29200
C1176       C  0.75434291  0.03510198  0.06357126     0.29200
C1177       C  0.74731687  0.03583205  0.43767770     0.37800
C1178       C  0.74755862  0.07933962  0.47255667     0.37800
C1179       C  0.74725207  0.42082963  0.02944089     0.37800
C1180       C  0.74688058  0.46441517  0.06429488     0.37800
C1181       C  0.76335077  0.43046317  0.42505664    -0.19700
C1182       C  0.76372583  0.40304025  0.44729935    -0.19700
C1183       C  0.76379680  0.09645257  0.05417317    -0.19700
C1184       C  0.76317832  0.06906519  0.07644342    -0.19700
C1185       C  0.74052715  0.07059072  0.42416972    -0.20800
C1186       C  0.74053075  0.09804978  0.44618414    -0.20800
C1187       C  0.74026585  0.40239783  0.05606731    -0.20800
C1188       C  0.74016977  0.42989858  0.07805990    -0.20800
C1189       C  0.75062029  0.50012493  0.42257847    -0.16100
C1190       C  0.75091413  0.40203365  0.00144394    -0.16100
C1191       C  0.75024021  0.49995977  0.07930307    -0.16100
C1192       C  0.75124813  0.09798584  0.00041790    -0.16100
H1193       H  0.76881695  0.42558628  0.40182160     0.16800
H1194       H  0.76959805  0.37298922  0.44430752     0.16800
H1195       H  0.76988785  0.12619408  0.05694570     0.16800
H1196       H  0.76866069  0.07366462  0.09948804     0.16800
H1197       H  0.73596871  0.07564715  0.40091382     0.15100
H1198       H  0.73584744  0.12840577  0.44300629     0.15100
H1199       H  0.73570166  0.37219520  0.05943411     0.15100
H1200       H  0.73566221  0.42501549  0.10148793     0.15100
H1201       H  0.73978357  0.47799177  0.48271373     0.28300
H1202       H  0.73951254  0.02266170  0.01955314     0.28300
N1203       N  0.75198134  0.45841859  0.28426729    -0.34400
N1204       N  0.74968391  0.45876281  0.21743154    -0.55000
N1205       N  0.75201726  0.04126806  0.21752554    -0.34400
N1206       N  0.74984960  0.04107676  0.28440978    -0.55000
C1207       C  0.74602732  0.42110688  0.27858987     0.29200
C1208       C  0.74679143  0.46469543  0.31382952     0.29200
C1209       C  0.74683598  0.03524361  0.18814478     0.29200
C1210       C  0.74632752  0.07887427  0.22337034     0.29200
C1211       C  0.75367935  0.42067333  0.22273342     0.37800
C1212       C  0.75410898  0.46425056  0.18771047     0.37800
C1213       C  0.75414233  0.03543519  0.31399902     0.37800
C1214       C  0.75381558  0.07902883  0.27898832     0.37800
C1215       C  0.73718289  0.40340460  0.30494540    -0.19700
C1216       C  0.73781457  0.43077077  0.32710129    -0.19700
C1217       C  0.73810745  0.06960467  0.17514901    -0.19700
C1218       C  0.73764883  0.09701325  0.19730094    -0.19700
C1219       C  0.76058680  0.40196392  0.19615842    -0.20800
C1220       C  0.76071275  0.42946188  0.17406412    -0.20800
C1221       C  0.76058801  0.07000384  0.32744879    -0.20800
C1222       C  0.76051792  0.09750451  0.30536218    -0.20800
C1223       C  0.74964544  0.40192030  0.25072170    -0.16100
C1224       C  0.75079440  0.49986633  0.32928787    -0.16100
C1225       C  0.75007332  0.09790347  0.25108260    -0.16100
C1226       C  0.75076506  0.49992345  0.17255310    -0.16100
H1227       H  0.73091926  0.37372509  0.30801353     0.16800
H1228       H  0.73217202  0.42620927  0.35032556     0.16800
H1229       H  0.73257005  0.07445129  0.15210389     0.16800
H1230       H  0.73162349  0.12701549  0.19441755     0.16800
H1231       H  0.76502981  0.37155583  0.19289192     0.15100
H1232       H  0.76513977  0.42439171  0.15064337     0.15100
H1233       H  0.76487368  0.07493377  0.35073839     0.15100
H1234       H  0.76488507  0.12775449  0.30850392     0.15100
H1235       H  0.76178056  0.47711254  0.26929509     0.28300
H1236       H  0.76168582  0.02210750  0.23217967     0.28300
C1237       C  0.75062006  0.49976848  0.38958957    -0.11100
C1238       C  0.75063662  0.49963673  0.36228264    -0.12700
C1239       C  0.75036488  0.50021376  0.11227970    -0.11100
C1240       C  0.75051102  0.50018399  0.13957720    -0.12700
C1241       C  0.00143642  0.49989331  0.38889274    -0.11100
C1242       C  0.50141916  0.49969930  0.36156033    -0.12700
C1243       C  0.00158789  0.49897319  0.11156463    -0.11100
C1244       C  0.50185989  0.49888463  0.13889403    -0.12700
C1245       C  0.75043540  0.25072067  0.38864724    -0.11100
C1246       C  0.74956908  0.25039135  0.36224026    -0.12700
C1247       C  0.74991234  0.25119350  0.13869483    -0.11100
C1248       C  0.74975880  0.25108200  0.11223263    -0.12700
C1249       C  0.88655255  0.25038555  0.25193077    -0.11100
C1250       C  0.86066858  0.25012446  0.25153068    -0.12700
C1251       C  0.61057080  0.25019119  0.25116099    -0.11100
C1252       C  0.63644349  0.25054758  0.25144325    -0.12700
C1253       C  0.86219720  0.24925884  0.00054325    -0.11100
C1254       C  0.88808496  0.24928347  0.50066891    -0.12700
C1255       C  0.61215859  0.24889807  0.99973938    -0.11100
C1256       C  0.63803592  0.24951077  0.50004354    -0.12700
C1257       C  0.49863300  0.24895991  0.36234378    -0.11100
C1258       C  0.99914688  0.24906751  0.38880011    -0.12700
C1259       C  0.49887840  0.25035754  0.11227321    -0.11100
C1260       C  0.99889572  0.25041099  0.13872109    -0.12700
O1261       O  0.98321503  0.22708499  0.93433247    -0.76300
C1262       C  0.00046274  0.14005697  0.00055085     0.84700
O1263       O  0.93115273  0.27434202  0.51710155    -0.77400
O1264       O  0.51648131  0.22709492  0.56779208    -0.78900
O1265       O  0.56818679  0.27259206  0.98304411    -0.78700
O1266       O  0.51717222  0.27216741  0.93237090    -0.77300
Zn1267     Zn  0.97536876  0.21569453  0.97682116     1.55700
O1268       O  0.56818101  0.22476723  0.51630928    -0.78700
Cd1269     Cd  0.52503221  0.28299181  0.97578561     1.59700
Cd1270     Cd  0.97413503  0.28374914  0.52425136     1.59600
O1271       O  0.51711517  0.34105506  0.98293817    -0.78700
O1272       O  0.99955231  0.24892252  0.99995810    -1.89200
Cd1273     Cd  0.52494302  0.21508430  0.52429873     1.59900
O1274       O  0.98195245  0.34162928  0.51715708    -0.78700
O1275       O  0.51747454  0.15708503  0.51789357    -0.77300
C1276       C  0.91888939  0.24974902  0.00089780     0.85200
C1277       C  0.99989128  0.24943500  0.92007698     0.84900
O1278       O  0.98359609  0.15882786  0.98360848    -0.76300
C1279       C  0.58134170  0.24866394  0.49964146     0.85700
O1280       O  0.93301246  0.22567392  0.98487167    -0.76400
C1281       C  0.49960517  0.35913216  0.50011817     0.85800
C1282       C  0.49906255  0.25002784  0.58100877     0.86100
O1283       O  0.98181671  0.27266517  0.56778231    -0.78800
O1284       O  0.51559308  0.33984347  0.76767167    -0.76300
C1285       C  0.49823537  0.24876567  0.83105003     0.84700
O1286       O  0.56772212  0.22582030  0.73346959    -0.77400
O1287       O  0.98239365  0.15743844  0.76719678    -0.78900
O1288       O  0.93047086  0.27491840  0.73570878    -0.78700
O1289       O  0.98157897  0.34206493  0.73354813    -0.77300
Zn1290     Zn  0.52316100  0.28293901  0.77472968     1.55700
O1291       O  0.93061530  0.22569046  0.76772539    -0.78700
Cd1292     Cd  0.97362563  0.28422900  0.72725010     1.59700
Cd1293     Cd  0.52476375  0.21602757  0.72618666     1.59600
O1294       O  0.98144390  0.27259518  0.68359260    -0.78700
O1295       O  0.49921358  0.25002880  0.75107668    -1.89200
Cd1296     Cd  0.97386639  0.21532772  0.77483831     1.59900
O1297       O  0.51673786  0.22790100  0.68281616    -0.78700
O1298       O  0.98147548  0.22562902  0.81843026    -0.77300
C1299       C  0.57978832  0.24953239  0.75060931     0.85200
C1300       C  0.49896562  0.35883062  0.75063135     0.84900
O1301       O  0.51472907  0.27164961  0.81709667    -0.76300
C1302       C  0.91738099  0.25039544  0.75185651     0.85700
O1303       O  0.56548994  0.27266888  0.76726598    -0.76400
C1304       C  0.99903396  0.25029579  0.66998295     0.85800
C1305       C  0.00016037  0.13982778  0.74997711     0.86100
O1306       O  0.51747882  0.15784285  0.73287860    -0.78800
O1307       O  0.76763651  0.34018501  0.51737436    -0.76300
C1308       C  0.74946846  0.25040417  0.58095105     0.84700
O1309       O  0.81904372  0.22564708  0.98310051    -0.77400
O1310       O  0.73365235  0.15857079  0.51791126    -0.78900
O1311       O  0.68200367  0.27459046  0.98437486    -0.78700
O1312       O  0.73264939  0.34262003  0.98430651    -0.77300
Zn1313     Zn  0.77503779  0.28327001  0.52443544     1.55700
O1314       O  0.68197923  0.22611217  0.51705130    -0.78700
Cd1315     Cd  0.72525137  0.28487948  0.97705654     1.59700
Cd1316     Cd  0.77601677  0.21637113  0.97618332     1.59600
O1317       O  0.73380425  0.27400703  0.93344842    -0.78700
O1318       O  0.75068471  0.25066554  0.50100147    -1.89200
Cd1319     Cd  0.72511816  0.21648542  0.52496833     1.59900
O1320       O  0.76794662  0.22774575  0.93275910    -0.78700
O1321       O  0.73227289  0.22769312  0.56849972    -0.77300
C1322       C  0.83139190  0.24911874  0.50019040     0.85200
C1323       C  0.75038072  0.35927342  0.50107291     0.84900
O1324       O  0.76649323  0.27241856  0.56684255    -0.76300
C1325       C  0.66883704  0.25013724  0.00052916     0.85700
O1326       O  0.81734708  0.27243314  0.51693722    -0.76400
C1327       C  0.75083030  0.25091067  0.91988579     0.85800
C1328       C  0.75118694  0.14072281  0.00060061     0.86100
O1329       O  0.76853375  0.15847348  0.98337104    -0.78800
O1330       O  0.76578377  0.34021564  0.76732458    -0.76300
C1331       C  0.74864665  0.24998212  0.83102402     0.84700
O1332       O  0.81772764  0.22576145  0.73389555    -0.77400
O1333       O  0.73184980  0.15853989  0.76792735    -0.78900
O1334       O  0.68039703  0.27455169  0.73482194    -0.78700
O1335       O  0.73098837  0.34240777  0.73405364    -0.77300
Zn1336     Zn  0.77330588  0.28346699  0.77446576     1.55700
O1337       O  0.68040333  0.22678811  0.76813705    -0.78700
Cd1338     Cd  0.72359267  0.28457956  0.72709790     1.59700
Cd1339     Cd  0.77467065  0.21633260  0.72651823     1.59600
O1340       O  0.73229292  0.27358885  0.68346395    -0.78700
O1341       O  0.74909265  0.25057449  0.75114845    -1.89200
Cd1342     Cd  0.72360023  0.21646436  0.77529136     1.59900
O1343       O  0.76695762  0.22801013  0.68299430    -0.78700
O1344       O  0.73147083  0.22707483  0.81876497    -0.77300
C1345       C  0.82986488  0.24965905  0.75082934     0.85200
C1346       C  0.74870291  0.35918112  0.75076850     0.84900
O1347       O  0.76517975  0.27246375  0.81677208    -0.76300
C1348       C  0.66724743  0.25067609  0.75150575     0.85700
O1349       O  0.81560004  0.27315896  0.76718092    -0.76400
C1350       C  0.74974867  0.25095125  0.66999111     0.85800
C1351       C  0.74962154  0.14066064  0.75088802     0.86100
O1352       O  0.76707910  0.15838326  0.73374402    -0.78800
N1353       N  0.00208800  0.45850193  0.96690754    -0.34400
N1354       N  0.00007633  0.45818888  0.53374264    -0.55000
N1355       N  0.00222550  0.04040669  0.53351964    -0.34400
N1356       N  0.00016285  0.04087984  0.96674369    -0.55000
C1357       C  0.99562499  0.42137003  0.97291681     0.29200
C1358       C  0.99655010  0.46508892  0.93763469     0.29200
C1359       C  0.99648061  0.03398945  0.56295525     0.29200
C1360       C  0.99570451  0.07777534  0.52768250     0.29200
C1361       C  0.00457804  0.42029398  0.52809862     0.37800
C1362       C  0.00527149  0.46349604  0.56313979     0.37800
C1363       C  0.00549741  0.03523816  0.93719185     0.37800
C1364       C  0.00503131  0.07851862  0.97226696     0.37800
C1365       C  0.98596012  0.40410362  0.94712701    -0.19700
C1366       C  0.98664847  0.43159369  0.92493588    -0.19700
C1367       C  0.98629862  0.06778002  0.57590708    -0.19700
C1368       C  0.98570123  0.09531000  0.55372966    -0.19700
C1369       C  0.01257394  0.40148123  0.55408846    -0.20800
C1370       C  0.01292910  0.42878571  0.57619937    -0.20800
C1371       C  0.01362659  0.06948797  0.92392134    -0.20800
C1372       C  0.01343569  0.09682319  0.94605058    -0.20800
C1373       C  0.99996385  0.40182447  0.00040028    -0.16100
C1374       C  0.00144598  0.50003662  0.92191484    -0.16100
C1375       C  0.00039591  0.09725597  0.00011473    -0.16100
C1376       C  0.00137802  0.49886499  0.57854399    -0.16100
H1377       H  0.97927026  0.37458937  0.94445090     0.16800
H1378       H  0.98053725  0.42734355  0.90208083     0.16800
H1379       H  0.97991082  0.07218243  0.59891319     0.16800
H1380       H  0.97885446  0.12503134  0.55658257     0.16800
H1381       H  0.01754054  0.37114228  0.55693877     0.15100
H1382       H  0.01813422  0.42360105  0.59922150     0.15100
H1383       H  0.01912602  0.07432433  0.90076493     0.15100
H1384       H  0.01880665  0.12684131  0.94306612     0.15100
H1385       H  0.01265120  0.47672314  0.98128081     0.28300
H1386       H  0.01303062  0.02186140  0.51888465     0.28300
N1387       N  0.50239509  0.45814379  0.78371247    -0.35200
N1388       N  0.50066962  0.04052980  0.78354723    -0.55000
N1389       N  0.50303766  0.04038213  0.71673767    -0.34400
N1390       N  0.50073637  0.45808601  0.71694392    -0.55000
C1391       C  0.49652964  0.46483282  0.81308708     0.29200
C1392       C  0.49563095  0.42112650  0.77797258     0.29200
C1393       C  0.49669860  0.07781504  0.72260684     0.29200
C1394       C  0.49749226  0.03405514  0.68748218     0.29200
C1395       C  0.50573398  0.03489691  0.81298569     0.37800
C1396       C  0.50544039  0.07821521  0.77781574     0.37800
C1397       C  0.50514473  0.42015508  0.72257646     0.37800
C1398       C  0.50604075  0.46345006  0.68735537     0.37800
C1399       C  0.48609748  0.43153807  0.82611888    -0.19700
C1400       C  0.48541709  0.40406009  0.80403335    -0.19700
C1401       C  0.48716086  0.09554238  0.69673404    -0.19700
C1402       C  0.48776713  0.06802666  0.67464527    -0.19700
C1403       C  0.51361614  0.06917283  0.82595836    -0.20800
C1404       C  0.51351182  0.09653735  0.80377338    -0.20800
C1405       C  0.51330026  0.40140784  0.69639975    -0.20800
C1406       C  0.51377187  0.42875724  0.67418497    -0.20800
C1407       C  0.50151293  0.49973369  0.82853572    -0.16100
C1408       C  0.50007716  0.40156583  0.75041762    -0.16100
C1409       C  0.50212231  0.49882640  0.67191591    -0.16100
C1410       C  0.50089841  0.09706891  0.75010149    -0.16100
H1411       H  0.47956453  0.42744498  0.84910862     0.16800
H1412       H  0.47833071  0.37470196  0.80695133     0.16800
H1413       H  0.48056041  0.12535080  0.69394231     0.16800
H1414       H  0.48167310  0.07256467  0.65177356     0.16800
H1415       H  0.51881045  0.07403548  0.84897704     0.15100
H1416       H  0.51868356  0.12660826  0.80655135     0.15100
H1417       H  0.51824651  0.37106578  0.69348553     0.15100
H1418       H  0.51910384  0.42361599  0.65102114     0.15100
H1419       H  0.51330561  0.47619042  0.76905664     0.28300
H1420       H  0.51343478  0.02164454  0.73120756     0.28300
N1421       N  0.74951082  0.45883287  0.96781763    -0.34400
N1422       N  0.75179712  0.04131451  0.96720569    -0.55000
N1423       N  0.74927686  0.04136440  0.53414637    -0.34400
N1424       N  0.75138300  0.45873355  0.53461510    -0.55000
C1425       C  0.75467258  0.46484485  0.93821761     0.29200
C1426       C  0.75505121  0.42118261  0.97360543     0.29200
C1427       C  0.75509603  0.07871497  0.52815935     0.29200
C1428       C  0.75434329  0.03510169  0.56357127     0.29200
C1429       C  0.74731679  0.03583250  0.93767761     0.37800
C1430       C  0.74755842  0.07934003  0.97255660     0.37800
C1431       C  0.74725298  0.42082923  0.52944090     0.37800
C1432       C  0.74688145  0.46441476  0.56429490     0.37800
C1433       C  0.76335043  0.43046353  0.92505674    -0.19700
C1434       C  0.76372521  0.40304061  0.94729944    -0.19700
C1435       C  0.76379709  0.09645226  0.55417318    -0.19700
C1436       C  0.76317860  0.06906494  0.57644342    -0.19700
C1437       C  0.74052725  0.07059123  0.92416961    -0.20800
C1438       C  0.74053077  0.09805027  0.94618403    -0.20800
C1439       C  0.74026700  0.40239733  0.55606734    -0.20800
C1440       C  0.74017089  0.42989808  0.57805993    -0.20800
C1441       C  0.75062017  0.50012533  0.92257840    -0.16100
C1442       C  0.75091503  0.40203329  0.50144393    -0.16100
C1443       C  0.75024084  0.49995941  0.57930307    -0.16100
C1444       C  0.75124845  0.09798549  0.50041793    -0.16100
H1445       H  0.76881675  0.42558657  0.90182174     0.16800
H1446       H  0.76959743  0.37298957  0.94430764     0.16800
H1447       H  0.76988809  0.12619380  0.55694571     0.16800
H1448       H  0.76866096  0.07366447  0.59948805     0.16800
H1449       H  0.73596892  0.07564769  0.90091368     0.15100
H1450       H  0.73584755  0.12840627  0.94300615     0.15100
H1451       H  0.73570299  0.37219465  0.55943416     0.15100
H1452       H  0.73566344  0.42501495  0.60148798     0.15100
H1453       H  0.73978292  0.47799215  0.98271359     0.28300
H1454       H  0.73951291  0.02266135  0.51955317     0.28300
N1455       N  0.75198158  0.45841871  0.78426725    -0.34400
N1456       N  0.74968422  0.45876285  0.71743153    -0.55000
N1457       N  0.75201733  0.04126809  0.71752543    -0.34400
N1458       N  0.74984958  0.04107690  0.78440967    -0.55000
C1459       C  0.74602746  0.42110704  0.77858986     0.29200
C1460       C  0.74679161  0.46469562  0.81382945     0.29200
C1461       C  0.74683621  0.03524358  0.68814463     0.29200
C1462       C  0.74632751  0.07887432  0.72337018     0.29200
C1463       C  0.75367975  0.42067340  0.72273349     0.37800
C1464       C  0.75410945  0.46425054  0.68771049     0.37800
C1465       C  0.75414229  0.03543541  0.81399891     0.37800
C1466       C  0.75381545  0.07902898  0.77898818     0.37800
C1467       C  0.73718291  0.40340483  0.80494540    -0.19700
C1468       C  0.73781462  0.43077104  0.82710126    -0.19700
C1469       C  0.73810770  0.06960464  0.67514879    -0.19700
C1470       C  0.73764890  0.09701326  0.69730072    -0.19700
C1471       C  0.76058736  0.40196395  0.69615856    -0.20800
C1472       C  0.76071340  0.42946186  0.67406422    -0.20800
C1473       C  0.76058796  0.07000410  0.82744865    -0.20800
C1474       C  0.76051776  0.09750474  0.80536201    -0.20800
C1475       C  0.74964569  0.40192039  0.75072175    -0.16100
C1476       C  0.75079450  0.49986654  0.82928778    -0.16100
C1477       C  0.75007317  0.09790356  0.75108243    -0.16100
C1478       C  0.75076543  0.49992337  0.67255306    -0.16100
H1479       H  0.73091923  0.37372535  0.80801358     0.16800
H1480       H  0.73217198  0.42620968  0.85032552     0.16800
H1481       H  0.73257044  0.07445125  0.65210363     0.16800
H1482       H  0.73162351  0.12701547  0.69441733     0.16800
H1483       H  0.76503040  0.37155586  0.69289216     0.15100
H1484       H  0.76514057  0.42439163  0.65064351     0.15100
H1485       H  0.76487373  0.07493408  0.85073822     0.15100
H1486       H  0.76488484  0.12775476  0.80850368     0.15100
H1487       H  0.76178089  0.47711267  0.76929500     0.28300
H1488       H  0.76168576  0.02210763  0.73217961     0.28300
C1489       C  0.75062007  0.49976879  0.88958950    -0.11100
C1490       C  0.75063668  0.49963697  0.86228255    -0.12700
C1491       C  0.75036533  0.50021347  0.61227969    -0.11100
C1492       C  0.75051137  0.50018378  0.63957718    -0.12700
C1493       C  0.00143669  0.49989400  0.88889277    -0.11100
C1494       C  0.50141958  0.49969963  0.86156035    -0.12700
C1495       C  0.00158783  0.49897219  0.61156465    -0.11100
C1496       C  0.50185993  0.49888385  0.63889405    -0.12700
C1497       C  0.75043460  0.25072047  0.88864716    -0.11100
C1498       C  0.74956843  0.25039111  0.86224016    -0.12700
C1499       C  0.74991320  0.25119398  0.63869474    -0.11100
C1500       C  0.74975993  0.25108236  0.61223255    -0.12700
C1501       C  0.88655248  0.25038521  0.75193105    -0.11100
C1502       C  0.86066850  0.25012411  0.75153100    -0.12700
C1503       C  0.61057069  0.25019153  0.75116093    -0.11100
C1504       C  0.63644337  0.25054810  0.75144296    -0.12700
C1505       C  0.86219801  0.24925742  0.50054300    -0.11100
C1506       C  0.88808414  0.24928514  0.00066928    -0.12700
C1507       C  0.61215935  0.24889724  0.49973976    -0.11100
C1508       C  0.63803516  0.24951134  0.00004322    -0.12700
C1509       C  0.49863221  0.24895984  0.86234389    -0.11100
C1510       C  0.99914580  0.24906799  0.88880025    -0.12700
C1511       C  0.49887845  0.25035678  0.61227324    -0.11100
C1512       C  0.99889561  0.25041050  0.63872112    -0.12700
O1513       O  0.98377559  0.72704736  0.43419316    -0.76300
C1514       C  0.00047218  0.64005597  0.50055752     0.84700
O1515       O  0.93099149  0.77437705  0.01645985    -0.77400
O1516       O  0.51577862  0.72708394  0.06797487    -0.78900
O1517       O  0.56827037  0.77259751  0.48368788    -0.78700
O1518       O  0.51775004  0.77211688  0.43252074    -0.77300
Zn1519     Zn  0.97554254  0.71568305  0.47661681     1.55700
O1520       O  0.56800023  0.72484302  0.01701020    -0.78700
Cd1521     Cd  0.52519471  0.78298532  0.47601764     1.59700
Cd1522     Cd  0.97389770  0.78378651  0.02402649     1.59600
O1523       O  0.51721794  0.84105065  0.48307813    -0.78700
O1524       O  0.99951750  0.74893260  0.49997344    -1.89200
Cd1525     Cd  0.52469595  0.71511398  0.02456073     1.59900
O1526       O  0.98180938  0.84166331  0.01702562    -0.78700
O1527       O  0.51733900  0.65710239  0.01804354    -0.77300
C1528       C  0.91886379  0.74973991  0.50017997     0.85200
C1529       C  0.00058381  0.74936595  0.42007676     0.84900
O1530       O  0.98372641  0.65881848  0.48348230    -0.76300
C1531       C  0.58129023  0.74871157  0.00042920     0.85700
O1532       O  0.93311536  0.72564078  0.48429356    -0.76400
C1533       C  0.49959295  0.85914492  0.00012257     0.85800
C1534       C  0.49823936  0.75000909  0.08103100     0.86100
O1535       O  0.98114137  0.77268366  0.06764172    -0.78800
O1536       O  0.51567468  0.83981074  0.26754562    -0.76300
C1537       C  0.49893059  0.74865184  0.33104455     0.84700
O1538       O  0.56753877  0.72584799  0.23277329    -0.77400
O1539       O  0.98245775  0.65740391  0.26731541    -0.78900
O1540       O  0.93028819  0.77492485  0.23638295    -0.78700
O1541       O  0.98141122  0.84205179  0.23369202    -0.77300
Zn1542     Zn  0.52331252  0.78289316  0.27450356     1.55700
O1543       O  0.93067572  0.72566946  0.26837272    -0.78700
Cd1544     Cd  0.97336993  0.78421122  0.22750235     1.59700
Cd1545     Cd  0.52450283  0.71600487  0.22594283     1.59600
O1546       O  0.98075080  0.77255632  0.18377691    -0.78700
O1547       O  0.49915940  0.74998602  0.25107716    -1.89200
Cd1548     Cd  0.97400453  0.71528254  0.27506704     1.59900
O1549       O  0.51601973  0.72783197  0.18266235    -0.78700
O1550       O  0.98204539  0.72553666  0.31857886    -0.77300
C1551       C  0.57974031  0.74954909  0.24981688     0.85200
C1552       C  0.49892663  0.85880825  0.25063790     0.84900
O1553       O  0.51529346  0.77155699  0.31694430    -0.76300
C1554       C  0.91731855  0.75039809  0.25263265     0.85700
O1555       O  0.56557032  0.77264538  0.26661983    -0.76400
C1556       C  0.99819599  0.75022614  0.17000166     0.85800
C1557       C  0.00012026  0.63980216  0.24997628     0.86100
O1558       O  0.51732112  0.65782440  0.23275333    -0.78800
O1559       O  0.76775676  0.84019521  0.01721990    -0.76300
C1560       C  0.75020897  0.75035916  0.08095751     0.84700
O1561       O  0.81887435  0.72566779  0.48243664    -0.77400
O1562       O  0.73374486  0.65857730  0.01804558    -0.78900
O1563       O  0.68182564  0.77465469  0.48508158    -0.78700
O1564       O  0.73250156  0.84264486  0.48445938    -0.77300
Zn1565     Zn  0.77521661  0.78327437  0.02420341     1.55700
O1566       O  0.68206360  0.72614186  0.01772537    -0.78700
Cd1567     Cd  0.72500315  0.78491160  0.47732446     1.59700
Cd1568     Cd  0.77576480  0.71639666  0.47593551     1.59600
O1569       O  0.73308670  0.77401617  0.43363968    -0.78700
O1570       O  0.75065057  0.75067584  0.00100716    -1.89200
Cd1571     Cd  0.72528978  0.71649310  0.02521616     1.59900
O1572       O  0.76723466  0.72776620  0.43260264    -0.78700
O1573       O  0.73289342  0.72765719  0.06867175    -0.77300
C1574       C  0.83136212  0.74911093  0.99944146     0.85200
C1575       C  0.75037382  0.85928790  0.00106543     0.84900
O1576       O  0.76708807  0.77240424  0.06668846    -0.76300
C1577       C  0.66878801  0.75018774  0.50133519     0.85700
O1578       O  0.81745079  0.77241279  0.01631313    -0.76400
C1579       C  0.74997423  0.75091040  0.41990689     0.85800
C1580       C  0.75114977  0.64073180  0.50059185     0.86100
O1581       O  0.76836133  0.65849319  0.48321982    -0.78800
O1582       O  0.76559563  0.84020926  0.26749189    -0.76300
C1583       C  0.74776712  0.75002173  0.33104262     0.84700
O1584       O  0.81780513  0.72573999  0.23458741    -0.77400
O1585       O  0.73165854  0.65852244  0.26779289    -0.78900
O1586       O  0.68049438  0.77454354  0.23414192    -0.78700
O1587       O  0.73108310  0.84239459  0.23390841    -0.77300
Zn1588     Zn  0.77303417  0.78345338  0.27472961     1.55700
O1589       O  0.68021152  0.72676084  0.26743925    -0.78700
Cd1590     Cd  0.72376553  0.78456537  0.22685468     1.59700
Cd1591     Cd  0.77483397  0.71631576  0.22678397     1.59600
O1592       O  0.73291639  0.77358355  0.18330232    -0.78700
O1593       O  0.74903644  0.75056388  0.25116423    -1.89200
Cd1594     Cd  0.72332018  0.71645013  0.27504591     1.59900
O1595       O  0.76756996  0.72799348  0.18317183    -0.78700
O1596       O  0.73071762  0.72710475  0.31860852    -0.77300
C1597       C  0.82980280  0.74963343  0.25163267     0.85200
C1598       C  0.74865706  0.85917544  0.25077954     0.84900
O1599       O  0.76445482  0.77247160  0.31695569    -0.76300
C1600       C  0.66720230  0.75066009  0.25069710     0.85700
O1601       O  0.81540587  0.77313139  0.26786801    -0.76400
C1602       C  0.75049868  0.75095102  0.16999752     0.85800
C1603       C  0.74957191  0.64064935  0.25090894     0.86100
O1604       O  0.76716662  0.65837154  0.23391987    -0.78800
N1605       N  0.00210657  0.95850474  0.46690142    -0.34400
N1606       N  0.00009540  0.95819844  0.03374397    -0.55000
N1607       N  0.00222314  0.54040008  0.03352035    -0.34400
N1608       N  0.00017846  0.54087553  0.46675105    -0.55000
C1609       C  0.99567232  0.92136214  0.47290502     0.29200
C1610       C  0.99659748  0.96507651  0.43762020     0.29200
C1611       C  0.99643827  0.53397208  0.06294632     0.29200
C1612       C  0.99567936  0.57776019  0.02767541     0.29200
C1613       C  0.00455731  0.92029458  0.02810686     0.37800
C1614       C  0.00526034  0.96349601  0.06314847     0.37800
C1615       C  0.00555091  0.53521679  0.43720780     0.37800
C1616       C  0.00510203  0.57849816  0.47228369     0.37800
C1617       C  0.98606638  0.90406996  0.44710084    -0.19700
C1618       C  0.98675436  0.93155661  0.42490933    -0.19700
C1619       C  0.98620039  0.56774215  0.07588418    -0.19700
C1620       C  0.98561091  0.59527341  0.05370623    -0.19700
C1621       C  0.01249273  0.90146398  0.05410898    -0.20800
C1622       C  0.01285742  0.92876841  0.07621888    -0.20800
C1623       C  0.01376943  0.56943718  0.42395205    -0.20800
C1624       C  0.01359073  0.59677301  0.44608334    -0.20800
C1625       C  0.99996893  0.90182972  0.50040101    -0.16100
C1626       C  0.00144788  0.00003907  0.42190404    -0.16100
C1627       C  0.00042034  0.59724867  0.50011995    -0.16100
C1628       C  0.00139474  0.99887352  0.07854968    -0.16100
H1629       H  0.97941132  0.87454205  0.44441689     0.16800
H1630       H  0.98067442  0.92728953  0.40204748     0.16800
H1631       H  0.97977283  0.57212966  0.09888155     0.16800
H1632       H  0.97872905  0.62498218  0.05654987     0.16800
H1633       H  0.01741212  0.87111286  0.05696684     0.15100
H1634       H  0.01802632  0.92357087  0.09924786     0.15100
H1635       H  0.01931792  0.57425269  0.40080385     0.15100
H1636       H  0.01902177  0.62677236  0.44311021     0.15100
H1637       H  0.01262600  0.97675037  0.48129118     0.28300
H1638       H  0.01307049  0.52187137  0.01890499     0.28300
N1639       N  0.50238245  0.95813312  0.28370696    -0.35200
N1640       N  0.50066182  0.54051679  0.28355399    -0.55000
N1641       N  0.50304138  0.54037119  0.21673159    -0.34400
N1642       N  0.50070712  0.95807573  0.21695086    -0.55000
C1643       C  0.49654356  0.96482333  0.31308591     0.29200
C1644       C  0.49563525  0.92110503  0.27798032     0.29200
C1645       C  0.49666261  0.57778843  0.22261124     0.29200
C1646       C  0.49748094  0.53404099  0.18747938     0.29200
C1647       C  0.50574224  0.53488800  0.31298993     0.37800
C1648       C  0.50544777  0.57819435  0.27781235     0.37800
C1649       C  0.50508000  0.92013318  0.22257303     0.37800
C1650       C  0.50599112  0.96343987  0.18735859     0.37800
C1651       C  0.48614869  0.93151613  0.32613335    -0.19700
C1652       C  0.48546563  0.90403001  0.30405484    -0.19700
C1653       C  0.48708144  0.59550079  0.19674889    -0.19700
C1654       C  0.48770620  0.56799321  0.17465433    -0.19700
C1655       C  0.51365154  0.56915738  0.32595251    -0.20800
C1656       C  0.51355098  0.59651395  0.30376106    -0.20800
C1657       C  0.51318470  0.90137679  0.19638627    -0.20800
C1658       C  0.51367042  0.92873355  0.17417724    -0.20800
C1659       C  0.50151636  0.99973429  0.32852762    -0.16100
C1660       C  0.50004449  0.90154504  0.25042043    -0.16100
C1661       C  0.50210562  0.99882933  0.17192334    -0.16100
C1662       C  0.50087480  0.59704543  0.25010231    -0.16100
H1663       H  0.47964133  0.92741931  0.34912937     0.16800
H1664       H  0.47840458  0.87466222  0.30698489     0.16800
H1665       H  0.48044005  0.62529476  0.19396666     0.16800
H1666       H  0.48159032  0.57252240  0.15178748     0.16800
H1667       H  0.51885945  0.57402048  0.34896857     0.15100
H1668       H  0.51874355  0.62657908  0.30653079     0.15100
H1669       H  0.51809077  0.87102493  0.19346392     0.15100
H1670       H  0.51897736  0.92358722  0.15100924     0.15100
H1671       H  0.51326209  0.97619294  0.26903633     0.28300
H1672       H  0.51347322  0.52165474  0.23119089     0.28300
N1673       N  0.74950184  0.95884298  0.46780310    -0.34400
N1674       N  0.75179158  0.54130760  0.46721194    -0.55000
N1675       N  0.74927458  0.54136650  0.03414174    -0.34400
N1676       N  0.75138325  0.95873743  0.03461105    -0.55000
C1677       C  0.75462050  0.96484689  0.43819418     0.29200
C1678       C  0.75500383  0.92118087  0.47358096     0.29200
C1679       C  0.75510983  0.57871121  0.02814635     0.29200
C1680       C  0.75437134  0.53509860  0.06355972     0.29200
C1681       C  0.74727635  0.53580517  0.43769264     0.37800
C1682       C  0.74749847  0.57932392  0.47256363     0.37800
C1683       C  0.74729127  0.92082555  0.02943660     0.37800
C1684       C  0.74691041  0.96440194  0.06429709     0.37800
C1685       C  0.76322276  0.93044335  0.42501682    -0.19700
C1686       C  0.76359789  0.90301796  0.44725756    -0.19700
C1687       C  0.76386148  0.59643497  0.05414650    -0.19700
C1688       C  0.76324970  0.56904871  0.07641844    -0.19700
C1689       C  0.74040523  0.57053900  0.42419136    -0.20800
C1690       C  0.74039356  0.59800459  0.44620167    -0.20800
C1691       C  0.74036619  0.90237003  0.05606974    -0.20800
C1692       C  0.74026073  0.92986561  0.07806546    -0.20800
C1693       C  0.75061178  0.00014422  0.42256239    -0.16100
C1694       C  0.75091524  0.90204184  0.00143102    -0.16100
C1695       C  0.75023587  0.99995223  0.07930789    -0.16100
C1696       C  0.75121952  0.59798759  0.00041303    -0.16100
H1697       H  0.76864205  0.92555348  0.40177247     0.16800
H1698       H  0.76941981  0.87295209  0.44425453     0.16800
H1699       H  0.76997976  0.62616705  0.05691058     0.16800
H1700       H  0.76876207  0.57364075  0.09945570     0.16800
H1701       H  0.73580128  0.57557365  0.40094315     0.15100
H1702       H  0.73564798  0.62834436  0.44302702     0.15100
H1703       H  0.73584736  0.87215426  0.05943738     0.15100
H1704       H  0.73578869  0.92496527  0.10149813     0.15100
H1705       H  0.73983329  0.97802251  0.48272110     0.28300
H1706       H  0.73947685  0.52267328  0.01956453     0.28300
N1707       N  0.75195244  0.95842826  0.28426134    -0.34400
N1708       N  0.74965847  0.95876002  0.21743635    -0.55000
N1709       N  0.75200665  0.54127014  0.21753275    -0.34400
N1710       N  0.74982545  0.54106406  0.28442701    -0.55000
C1711       C  0.74595447  0.92112956  0.27858465     0.29200
C1712       C  0.74673574  0.96472850  0.31381546     0.29200
C1713       C  0.74687257  0.53526054  0.18813948     0.29200
C1714       C  0.74633974  0.57888271  0.22337323     0.29200
C1715       C  0.75368326  0.92067683  0.22274640     0.37800
C1716       C  0.75412229  0.96425073  0.18772117     0.37800
C1717       C  0.75408361  0.53543252  0.31402351     0.37800
C1718       C  0.75372870  0.57903120  0.27901632     0.37800
C1719       C  0.73704380  0.90346329  0.30493142    -0.19700
C1720       C  0.73768823  0.93083555  0.32708274    -0.19700
C1721       C  0.73820512  0.56964179  0.17513147    -0.19700
C1722       C  0.73773388  0.59704499  0.19728700    -0.19700
C1723       C  0.76065571  0.90197806  0.19618318    -0.20800
C1724       C  0.76078390  0.92947335  0.17408668    -0.20800
C1725       C  0.76043761  0.57002479  0.32748878    -0.20800
C1726       C  0.76034586  0.59752919  0.30540567    -0.20800
C1727       C  0.74960605  0.90192163  0.25072857    -0.16100
C1728       C  0.75079212  0.99988698  0.32927153    -0.16100
C1729       C  0.75002911  0.59789772  0.25110098    -0.16100
C1730       C  0.75075239  0.99991347  0.17255785    -0.16100
H1731       H  0.73073049  0.87380354  0.30799822     0.16800
H1732       H  0.73201128  0.92629857  0.35030136     0.16800
H1733       H  0.73271485  0.57450600  0.15207566     0.16800
H1734       H  0.73174669  0.62705938  0.19439605     0.16800
H1735       H  0.76514156  0.87157937  0.19292411     0.15100
H1736       H  0.76525166  0.92440967  0.15067260     0.15100
H1737       H  0.76467810  0.57496826  0.35078631     0.15100
H1738       H  0.76464541  0.62779639  0.30855804     0.15100
H1739       H  0.76180316  0.97709315  0.26929965     0.28300
H1740       H  0.76162394  0.52209395  0.23220630     0.28300
C1741       C  0.75061177  0.99979576  0.38957295    -0.11100
C1742       C  0.75063090  0.99966456  0.36226594    -0.12700
C1743       C  0.75035577  0.00020129  0.11228491    -0.11100
C1744       C  0.75049907  0.00017041  0.13958243    -0.12700
C1745       C  0.00144102  0.99989459  0.38888273    -0.11100
C1746       C  0.50142527  0.99970090  0.36155110    -0.12700
C1747       C  0.00159636  0.99897828  0.11157110    -0.11100
C1748       C  0.50185636  0.99889004  0.13890091    -0.12700
C1749       C  0.74929256  0.75073204  0.38867804    -0.11100
C1750       C  0.74841485  0.75042524  0.36227122    -0.12700
C1751       C  0.75092443  0.75117161  0.13869659    -0.11100
C1752       C  0.75076588  0.75103794  0.11223310    -0.12700
C1753       C  0.88648548  0.75038473  0.25292759    -0.11100
C1754       C  0.86059971  0.75012660  0.25254152    -0.12700
C1755       C  0.61052956  0.75020991  0.25013772    -0.11100
C1756       C  0.63640252  0.75056670  0.25041131    -0.12700
C1757       C  0.86217521  0.74920086  0.99960274    -0.11100
C1758       C  0.88806347  0.74923025  0.49974480    -0.12700
C1759       C  0.61210332  0.74892591  0.00074676    -0.11100
C1760       C  0.63798054  0.74953695  0.50106005    -0.12700
C1761       C  0.49957691  0.74884496  0.36233127    -0.11100
C1762       C  0.00008769  0.74897283  0.38878870    -0.12700
C1763       C  0.49778264  0.75032016  0.11229807    -0.11100
C1764       C  0.99779450  0.75035280  0.13874642    -0.12700
O1765       O  0.98377452  0.72704848  0.93419341    -0.76300
C1766       C  0.00047145  0.64005708  0.00055749     0.84700
O1767       O  0.93099217  0.77437530  0.51645956    -0.77400
O1768       O  0.51577913  0.72708313  0.56797505    -0.78900
O1769       O  0.56826967  0.77259839  0.98368757    -0.78700
O1770       O  0.51774916  0.77211775  0.93252069    -0.77300
Zn1771     Zn  0.97554154  0.71568428  0.97661709     1.55700
O1772       O  0.56800095  0.72484212  0.51701051    -0.78700
Cd1773     Cd  0.52519395  0.78298642  0.97601751     1.59700
Cd1774     Cd  0.97389821  0.78378512  0.52402631     1.59600
O1775       O  0.51721750  0.84105173  0.98307800    -0.78700
O1776       O  0.99951669  0.74893379  0.99997348    -1.89200
Cd1777     Cd  0.52469663  0.71511291  0.52456096     1.59900
O1778       O  0.98180950  0.84166196  0.51702540    -0.78700
O1779       O  0.51733950  0.65710127  0.51804382    -0.77300
C1780       C  0.91886300  0.74974165  0.00018032     0.85200
C1781       C  0.00058281  0.74936683  0.92007687     0.84900
O1782       O  0.98372539  0.65881960  0.98348258    -0.76300
C1783       C  0.58129095  0.74871072  0.50042953     0.85700
O1784       O  0.93311449  0.72564239  0.98429395    -0.76400
C1785       C  0.49959310  0.85914371  0.50012249     0.85800
C1786       C  0.49823965  0.75000813  0.58103102     0.86100
O1787       O  0.98114157  0.77268249  0.56764159    -0.78800
O1788       O  0.51567451  0.83981054  0.76754574    -0.76300
C1789       C  0.49893023  0.74865167  0.83104466     0.84700
O1790       O  0.56753879  0.72584841  0.73277319    -0.77400
O1791       O  0.98245782  0.65740366  0.76731522    -0.78900
O1792       O  0.93028805  0.77492464  0.73638301    -0.78700
O1793       O  0.98141106  0.84205160  0.73369214    -0.77300
Zn1794     Zn  0.52331234  0.78289309  0.77450368     1.55700
O1795       O  0.93067575  0.72566924  0.76837278    -0.78700
Cd1796     Cd  0.97336977  0.78421102  0.72750240     1.59700
Cd1797     Cd  0.52450288  0.71600491  0.72594288     1.59600
O1798       O  0.98075063  0.77255609  0.68377694    -0.78700
O1799       O  0.49915929  0.74998585  0.75107724    -1.89200
Cd1800     Cd  0.97400455  0.71528227  0.77506707     1.59900
O1801       O  0.51601972  0.72783178  0.68266241    -0.78700
O1802       O  0.98204528  0.72553624  0.81857891    -0.77300
C1803       C  0.57974025  0.74954942  0.74981690     0.85200
C1804       C  0.49892647  0.85880804  0.75063804     0.84900
O1805       O  0.51529303  0.77155699  0.81694446    -0.76300
C1806       C  0.91731850  0.75039785  0.75263277     0.85700
O1807       O  0.56557020  0.77264541  0.76662005    -0.76400
C1808       C  0.99819582  0.75022586  0.67000172     0.85800
C1809       C  0.00012041  0.63980201  0.74997609     0.86100
O1810       O  0.51732129  0.65782437  0.73275324    -0.78800
O1811       O  0.76775795  0.84019488  0.51721956    -0.76300
C1812       C  0.75021006  0.75035934  0.58095741     0.84700
O1813       O  0.81887377  0.72566897  0.98243664    -0.77400
O1814       O  0.73374555  0.65857705  0.51804582    -0.78900
O1815       O  0.68182502  0.77465532  0.98508159    -0.78700
O1816       O  0.73250099  0.84264520  0.98445903    -0.77300
Zn1817     Zn  0.77521770  0.78327394  0.52420320     1.55700
O1818       O  0.68206448  0.72614162  0.51772568    -0.78700
Cd1819     Cd  0.72500252  0.78491196  0.97732430     1.59700
Cd1820     Cd  0.77576423  0.71639726  0.97593556     1.59600
O1821       O  0.73308584  0.77401624  0.93363954    -0.78700
O1822       O  0.75065136  0.75067543  0.50100716    -1.89200
Cd1823     Cd  0.72529067  0.71649286  0.52521628     1.59900
O1824       O  0.76723390  0.72776643  0.93260265    -0.78700
O1825       O  0.73289452  0.72765724  0.56867176    -0.77300
C1826       C  0.83136292  0.74910975  0.49944127     0.85200
C1827       C  0.75037471  0.85928756  0.50106543     0.84900
O1828       O  0.76708920  0.77240425  0.56668828    -0.76300
C1829       C  0.66878726  0.75018826  0.00133500     0.85700
O1830       O  0.81745182  0.77241199  0.51631282    -0.76400
C1831       C  0.74997335  0.75091039  0.91990682     0.85800
C1832       C  0.75114932  0.64073214  0.00059181     0.86100
O1833       O  0.76836097  0.65849365  0.98321992    -0.78800
O1834       O  0.76559569  0.84020926  0.76749195    -0.76300
C1835       C  0.74776671  0.75002165  0.83104252     0.84700
O1836       O  0.81780505  0.72573970  0.73458764    -0.77400
O1837       O  0.73165817  0.65852252  0.76779253    -0.78900
O1838       O  0.68049440  0.77454386  0.73414152    -0.78700
O1839       O  0.73108326  0.84239479  0.73390834    -0.77300
Zn1840     Zn  0.77303414  0.78345339  0.77472966     1.55700
O1841       O  0.68021142  0.72676117  0.76743886    -0.78700
Cd1842     Cd  0.72376561  0.78456565  0.72685438     1.59700
Cd1843     Cd  0.77483389  0.71631581  0.72678388     1.59600
O1844       O  0.73291686  0.77358406  0.68330207    -0.78700
O1845       O  0.74903640  0.75056405  0.75116406    -1.89200
Cd1846     Cd  0.72332000  0.71645024  0.77504556     1.59900
O1847       O  0.76757032  0.72799384  0.68317178    -0.78700
O1848       O  0.73071727  0.72710478  0.81860822    -0.77300
C1849       C  0.82980272  0.74963314  0.75163290     0.85200
C1850       C  0.74865719  0.85917552  0.75077956     0.84900
O1851       O  0.76445458  0.77247151  0.81695578    -0.76300
C1852       C  0.66720226  0.75066045  0.75069670     0.85700
O1853       O  0.81540579  0.77313123  0.76786813    -0.76400
C1854       C  0.75049922  0.75095153  0.66999738     0.85800
C1855       C  0.74957162  0.64064942  0.75090870     0.86100
O1856       O  0.76716641  0.65837160  0.73391971    -0.78800
N1857       N  0.00210670  0.95850581  0.96690144    -0.34400
N1858       N  0.00009508  0.95819722  0.53374403    -0.55000
N1859       N  0.00222318  0.54039900  0.53352042    -0.34400
N1860       N  0.00017827  0.54087657  0.96675105    -0.55000
C1861       C  0.99567228  0.92136334  0.97290514     0.29200
C1862       C  0.99659754  0.96507754  0.93762027     0.29200
C1863       C  0.99643827  0.53397105  0.56294636     0.29200
C1864       C  0.99567978  0.57775918  0.52767548     0.29200
C1865       C  0.00455691  0.92029334  0.52810691     0.37800
C1866       C  0.00525999  0.96349479  0.56314851     0.37800
C1867       C  0.00555085  0.53521777  0.93720783     0.37800
C1868       C  0.00510149  0.57849931  0.97228361     0.37800
C1869       C  0.98606615  0.90407113  0.94710104    -0.19700
C1870       C  0.98675420  0.93155767  0.92490948    -0.19700
C1871       C  0.98620074  0.56774130  0.57588426    -0.19700
C1872       C  0.98561147  0.59527257  0.55370632    -0.19700
C1873       C  0.01249220  0.90146269  0.55410907    -0.20800
C1874       C  0.01285694  0.92876715  0.57621893    -0.20800
C1875       C  0.01376909  0.56943821  0.92395201    -0.20800
C1876       C  0.01359007  0.59677418  0.94608322    -0.20800
C1877       C  0.99996902  0.90183089  0.00040106    -0.16100
C1878       C  0.00144798  0.00003998  0.92190402    -0.16100
C1879       C  0.00041976  0.59724977  0.00011988    -0.16100
C1880       C  0.00139457  0.99887239  0.57854970    -0.16100
H1881       H  0.97941099  0.87454325  0.94441717     0.16800
H1882       H  0.98067415  0.92729058  0.90204767     0.16800
H1883       H  0.97977330  0.57212894  0.59888165     0.16800
H1884       H  0.97872982  0.62498143  0.55654995     0.16800
H1885       H  0.01741158  0.87111158  0.55696698     0.15100
H1886       H  0.01802586  0.92356959  0.59924792     0.15100
H1887       H  0.01931750  0.57425368  0.90080378     0.15100
H1888       H  0.01902085  0.62677361  0.94310997     0.15100
H1889       H  0.01262645  0.97675152  0.98129120     0.28300
H1890       H  0.01307040  0.52187005  0.51890497     0.28300
N1891       N  0.50238270  0.95813299  0.78370700    -0.35200
N1892       N  0.50066215  0.54051674  0.78355392    -0.55000
N1893       N  0.50304166  0.54037088  0.71673147    -0.34400
N1894       N  0.50070732  0.95807534  0.71695092    -0.55000
C1895       C  0.49654389  0.96482331  0.81308596     0.29200
C1896       C  0.49563532  0.92110493  0.77798040     0.29200
C1897       C  0.49666283  0.57778815  0.72261104     0.29200
C1898       C  0.49748112  0.53404055  0.68747927     0.29200
C1899       C  0.50574272  0.53488802  0.81298984     0.37800
C1900       C  0.50544822  0.57819423  0.77781213     0.37800
C1901       C  0.50508010  0.92013280  0.72257313     0.37800
C1902       C  0.50599126  0.96343938  0.68735864     0.37800
C1903       C  0.48614891  0.93151619  0.82613346    -0.19700
C1904       C  0.48546567  0.90403004  0.80405496    -0.19700
C1905       C  0.48708154  0.59550037  0.69674868    -0.19700
C1906       C  0.48770633  0.56799270  0.67465415    -0.19700
C1907       C  0.51365220  0.56915740  0.82595228    -0.20800
C1908       C  0.51355163  0.59651387  0.80376076    -0.20800
C1909       C  0.51318473  0.90137629  0.69638638    -0.20800
C1910       C  0.51367046  0.92873300  0.67417732    -0.20800
C1911       C  0.50151676  0.99973434  0.82852758    -0.16100
C1912       C  0.50004447  0.90154480  0.75042054    -0.16100
C1913       C  0.50210579  0.99882880  0.67192334    -0.16100
C1914       C  0.50087509  0.59704523  0.75010208    -0.16100
H1915       H  0.47964160  0.92741938  0.84912949     0.16800
H1916       H  0.47840454  0.87466230  0.80698503     0.16800
H1917       H  0.48044003  0.62529429  0.69396644     0.16800
H1918       H  0.48159042  0.57252177  0.65178730     0.16800
H1919       H  0.51886022  0.57402061  0.84896831     0.15100
H1920       H  0.51874425  0.62657900  0.80653038     0.15100
H1921       H  0.51809075  0.87102440  0.69346408     0.15100
H1922       H  0.51897740  0.92358661  0.65100933     0.15100
H1923       H  0.51326239  0.97619274  0.76903634     0.28300
H1924       H  0.51347354  0.52165460  0.73119069     0.28300
N1925       N  0.74950125  0.95884337  0.96780307    -0.34400
N1926       N  0.75179135  0.54130795  0.96721188    -0.55000
N1927       N  0.74927502  0.54136615  0.53414175    -0.34400
N1928       N  0.75138394  0.95873707  0.53461107    -0.55000
C1929       C  0.75462011  0.96484725  0.93819414     0.29200
C1930       C  0.75500321  0.92118121  0.97358096     0.29200
C1931       C  0.75511026  0.57871089  0.52814636     0.29200
C1932       C  0.75437181  0.53509828  0.56355974     0.29200
C1933       C  0.74727624  0.53580558  0.93769254     0.37800
C1934       C  0.74749821  0.57932426  0.97256359     0.37800
C1935       C  0.74729219  0.92082514  0.52943664     0.37800
C1936       C  0.74691114  0.96440155  0.56429711     0.37800
C1937       C  0.76322241  0.93044370  0.92501686    -0.19700
C1938       C  0.76359744  0.90301832  0.94725763    -0.19700
C1939       C  0.76386190  0.59643465  0.55414651    -0.19700
C1940       C  0.76325008  0.56904840  0.57641845    -0.19700
C1941       C  0.74040527  0.57053947  0.92419125    -0.20800
C1942       C  0.74039350  0.59800500  0.94620160    -0.20800
C1943       C  0.74036733  0.90236954  0.55606982    -0.20800
C1944       C  0.74026179  0.92986512  0.57806553    -0.20800
C1945       C  0.75061163  0.00014465  0.92256232    -0.16100
C1946       C  0.75091609  0.90204148  0.50143103    -0.16100
C1947       C  0.75023637  0.99995192  0.57930789    -0.16100
C1948       C  0.75121986  0.59798726  0.50041306    -0.16100
H1949       H  0.76864181  0.92555380  0.90177256     0.16800
H1950       H  0.76941939  0.87295245  0.94425462     0.16800
H1951       H  0.76998019  0.62616672  0.55691062     0.16800
H1952       H  0.76876241  0.57364042  0.59945573     0.16800
H1953       H  0.73580149  0.57557419  0.90094301     0.15100
H1954       H  0.73564806  0.62834481  0.94302698     0.15100
H1955       H  0.73584869  0.87215371  0.55943747     0.15100
H1956       H  0.73578988  0.92496475  0.60149822     0.15100
H1957       H  0.73983272  0.97802276  0.98272089     0.28300
H1958       H  0.73947730  0.52267299  0.51956468     0.28300
N1959       N  0.75195269  0.95842838  0.78426130    -0.34400
N1960       N  0.74965878  0.95876005  0.71743636    -0.55000
N1961       N  0.75200669  0.54127015  0.71753265    -0.34400
N1962       N  0.74982531  0.54106422  0.78442690    -0.55000
C1963       C  0.74595468  0.92112963  0.77858468     0.29200
C1964       C  0.74673582  0.96472870  0.81381542     0.29200
C1965       C  0.74687282  0.53526049  0.68813936     0.29200
C1966       C  0.74633969  0.57888271  0.72337307     0.29200
C1967       C  0.75368366  0.92067688  0.72274650     0.37800
C1968       C  0.75412272  0.96425070  0.68772121     0.37800
C1969       C  0.75408359  0.53543274  0.81402339     0.37800
C1970       C  0.75372841  0.57903138  0.77901618     0.37800
C1971       C  0.73704386  0.90346347  0.80493145    -0.19700
C1972       C  0.73768823  0.93083581  0.82708272    -0.19700
C1973       C  0.73820539  0.56964173  0.67513125    -0.19700
C1974       C  0.73773401  0.59704499  0.69728675    -0.19700
C1975       C  0.76065627  0.90197806  0.69618336    -0.20800
C1976       C  0.76078452  0.92947329  0.67408683    -0.20800
C1977       C  0.76043747  0.57002506  0.82748861    -0.20800
C1978       C  0.76034559  0.59752945  0.80540549    -0.20800
C1979       C  0.74960630  0.90192171  0.75072863    -0.16100
C1980       C  0.75079216  0.99988721  0.82927144    -0.16100
C1981       C  0.75002886  0.59789780  0.75110080    -0.16100
C1982       C  0.75075268  0.99991337  0.67255780    -0.16100
H1983       H  0.73073051  0.87380374  0.80799825     0.16800
H1984       H  0.73201121  0.92629894  0.85030133     0.16800
H1985       H  0.73271523  0.57450588  0.65207541     0.16800
H1986       H  0.73174684  0.62705937  0.69439577     0.16800
H1987       H  0.76514217  0.87157937  0.69292437     0.15100
H1988       H  0.76525241  0.92440951  0.65067279     0.15100
H1989       H  0.76467793  0.57496858  0.85078614     0.15100
H1990       H  0.76464511  0.62779667  0.80855782     0.15100
H1991       H  0.76180344  0.97709305  0.76929973     0.28300
H1992       H  0.76162396  0.52209392  0.73220635     0.28300
C1993       C  0.75061178  0.99979618  0.88957287    -0.11100
C1994       C  0.75063095  0.99966483  0.86226586    -0.12700
C1995       C  0.75035620  0.00020104  0.61228488    -0.11100
C1996       C  0.75049939  0.00017019  0.63958239    -0.12700
C1997       C  0.00144123  0.99989526  0.88888272    -0.11100
C1998       C  0.50142556  0.99970121  0.86155108    -0.12700
C1999       C  0.00159626  0.99897725  0.61157110    -0.11100
C2000       C  0.50185639  0.99888931  0.63890092    -0.12700
C2001       C  0.74929161  0.75073177  0.88867797    -0.11100
C2002       C  0.74841411  0.75042505  0.86227114    -0.12700
C2003       C  0.75092526  0.75117226  0.63869648    -0.11100
C2004       C  0.75076685  0.75103851  0.61223299    -0.12700
C2005       C  0.88648542  0.75038442  0.75292786    -0.11100
C2006       C  0.86059964  0.75012623  0.75254185    -0.12700
C2007       C  0.61052951  0.75021049  0.75013758    -0.11100
C2008       C  0.63640248  0.75056719  0.75041094    -0.12700
C2009       C  0.86217601  0.74919925  0.49960244    -0.11100
C2010       C  0.88806268  0.74923205  0.99974515    -0.12700
C2011       C  0.61210405  0.74892510  0.50074707    -0.11100
C2012       C  0.63797980  0.74953770  0.00105976    -0.12700
C2013       C  0.49957624  0.74884505  0.86233138    -0.11100
C2014       C  0.00008671  0.74897337  0.88878881    -0.12700
C2015       C  0.49778270  0.75031938  0.61229811    -0.11100
C2016       C  0.99779433  0.75035232  0.63874647    -0.12700
loop_ 
_geom_bond_atom_site_label_1 
_geom_bond_atom_site_label_2 
_geom_bond_distance 
_geom_bond_site_symmetry_2 
_ccdc_geom_bond_type 
O1           C17   1.270       .  A
O1           Zn7   1.976       .  S
C2           O18   1.274       .  A
C2         O1275   1.273       .  A
C2          C115   1.485       .  S
O3          C268   1.271       .  A
O3          Cd10   2.064       .  S
O4           C22   1.269   1_455  A
O4          Cd13   2.028       .  S
O5          C271   1.272       .  A
O5           Cd9   2.069       .  S
O6         C1025   1.269   1_455  A
O6           Cd9   2.026       .  S
Zn7          O18   2.028       .  S
Zn7          O20   2.025       .  S
Zn7          O12   1.939       .  S
O8           C19   1.272   1_554  A
O8          Cd13   2.072       .  S
Cd9          O11   2.068       .  S
Cd9        O1020   1.993   1_455  S
Cd10         O14   2.069       .  S
Cd10         O23   2.027       .  S
Cd10        O264   1.993   1_554  S
O11         C273   1.273   1_455  A
O12       Cd1017   1.993       .  S
O12        Cd262   1.993       .  S
O12       Cd1273   1.992       .  S
Cd13         O15   2.069       .  S
Cd13       O1272   1.992   1_454  S
O14        C1029   1.273       .  A
O15        C1262   1.273       .  A
C16          O20   1.273       .  A
C16         O255   1.271       .  A
C16         C246   1.436       .  S
C17        O1014   1.269       .  A
C17         C250   1.405       .  S
C19         O257   1.272       .  A
C19         C247   1.436       .  S
C21         O263   1.273   1_654  A
C21        O1022   1.273       .  A
C21        C1373   1.482       .  S
C22        O1031   1.269       .  A
C22         C251   1.403       .  S
O23        C1030   1.269       .  A
O24          C40   1.274   1_455  A
O24         Zn30   2.026       .  S
C25          O41   1.270   1_655  A
C25        O1046   1.269       .  A
C25         C249   1.405       .  S
O26          C39   1.271       .  A
O26         Cd33   2.067       .  S
O27          C45   1.274       .  A
O27         Cd36   2.070       .  S
O28          C42   1.272       .  A
O28         Cd32   2.070       .  S
O29        C1048   1.273       .  A
O29         Cd32   2.067       .  S
Zn30         O41   1.975       .  S
Zn30         O43   2.021       .  S
Zn30         O35   1.939   1_455  S
O31          C42   1.272       .  A
O31         Cd36   2.072       .  S
Cd32         O34   2.028       .  S
Cd32       O1043   1.992       .  S
Cd33         O37   2.029       .  S
Cd33         O46   2.072       .  S
Cd33         O35   1.994   1_455  S
O34          C44   1.269       .  A
O35       Cd1040   1.992       .  S
O35       Cd1044   1.993       .  S
Cd36         O38   2.028       .  S
Cd36       O1043   1.993       .  S
O37        C1052   1.269   1_455  A
O38        C1033   1.269       .  A
C39          O43   1.272       .  A
C39         C243   1.435       .  S
C40        O1037   1.273       .  A
C40         C148   1.484   1_655  S
C42         C241   1.436       .  S
C44        O1045   1.269       .  A
C44         C252   1.403       .  S
C45        O1054   1.273       .  A
C45        C1158   1.484       .  S
O46        C1053   1.273       .  A
O47          C63   1.274       .  A
O47         Zn53   2.025       .  S
C48          O64   1.269       .  A
C48          O61   1.269       .  A
C48         C240   1.405       .  S
O49         C314   1.271       .  A
O49         Cd56   2.064       .  S
O50         C320   1.273       .  A
O50         Cd59   2.067       .  S
O51          C65   1.272       .  A
O51         Cd55   2.072       .  S
O52         C315   1.273       .  A
O52         Cd55   2.065       .  S
Zn53         O64   1.974       .  S
Zn53         O66   2.024       .  S
Zn53         O58   1.939       .  S
O54         C317   1.272       .  A
O54         Cd59   2.069       .  S
Cd55         O57   2.026       .  S
Cd55        O310   1.991       .  S
Cd56         O60   2.028       .  S
Cd56         O69   2.067       .  S
Cd56        O310   1.993       .  S
O57          C67   1.269       .  A
O58         Cd59   1.993       .  S
O58        Cd307   1.991   1_554  S
O58        Cd308   1.993   1_554  S
Cd59         O61   2.027       .  S
O60          C67   1.269       .  A
C62          O66   1.272       .  A
C62         O301   1.271   1_554  A
C62         C245   1.436       .  S
C63         O304   1.273   1_554  A
C63         C182   1.484       .  S
C65         O306   1.272       .  A
C65         C248   1.436       .  S
C67         C237   1.403       .  S
C68          O69   1.273       .  A
C68         O302   1.273       .  A
C68         C436   1.483       .  S
O70          C86   1.273       .  A
O70         Zn76   2.021       .  S
C71          O87   1.268       .  A
C71          O84   1.269       .  A
C71         C238   1.403       .  S
O72          C85   1.272       .  A
O72         Cd79   2.070       .  S
O73          C91   1.273       .  A
O73         Cd82   2.067       .  S
O74          C88   1.272       .  A
O74         Cd78   2.071       .  S
O75          C86   1.273       .  A
O75         Cd78   2.066       .  S
Zn76         O87   1.967       .  S
Zn76         O89   2.019       .  S
Zn76         O81   1.938       .  S
O77          C88   1.272       .  A
O77         Cd82   2.069       .  S
Cd78         O80   2.029       .  S
Cd78         O81   1.991       .  S
Cd79         O83   2.031       .  S
Cd79         O92   2.070       .  S
Cd79         O81   1.994       .  S
O80          C90   1.269       .  A
O81         Cd82   1.994       .  S
Cd82         O84   2.027       .  S
O83          C90   1.270       .  A
C85          O89   1.271       .  A
C85         C242   1.436       .  S
C86         C215   1.484       .  S
C88         C244   1.435       .  S
C90         C239   1.405       .  S
C91          O92   1.274       .  A
C91         C217   1.483       .  S
N93          C98   1.361       .  A
N93          C97   1.353       .  A
N93         H125   1.039       .  S
N94         C101   1.352       .  A
N94         C102   1.359       .  A
N95         C100   1.353       .  A
N95          C99   1.362       .  A
N95         H126   1.039       .  S
N96         C103   1.360       .  A
N96         C104   1.353       .  A
C97         C105   1.390       .  A
C97         C113   1.422       .  A
C98         C114   1.421       .  A
C98         C106   1.384       .  A
C99         C107   1.384       .  A
C99         C620   1.421   1_545  A
C100        C108   1.390       .  A
C100        C367   1.423       .  A
C101        C109   1.389       .  A
C101        C365   1.421       .  A
C102        C116   1.418       .  A
C102        C110   1.383       .  A
C103        C111   1.383       .  A
C103        C618   1.419       .  A
C104        C112   1.389       .  A
C104        C115   1.422       .  A
C105        C106   1.378       .  A
C105        H117   1.082       .  S
C106        H118   1.080       .  S
C107        C108   1.378       .  A
C107        H119   1.080       .  S
C108        H120   1.082       .  S
C109        C110   1.374       .  A
C109        H121   1.082       .  S
C110        H122   1.080       .  S
C111        C112   1.375       .  A
C111        H123   1.080       .  S
C112        H124   1.082       .  S
C113       C1281   1.482       .  S
C113        C353   1.421       .  A
C114        C233   1.482       .  S
C114        C607   1.419       .  A
C115        C352   1.423       .  A
C116        C235   1.482       .  S
C116        C603   1.421       .  A
N127        C132   1.353   1_455  A
N127        C131   1.362   1_455  A
N127        H159   1.039       .  S
N128        C135   1.359       .  A
N128        C136   1.353       .  A
N129        C134   1.362   1_455  A
N129        C133   1.353   1_455  A
N129        H160   1.039       .  S
N130        C137   1.353       .  A
N130        C138   1.360       .  A
C131        C139   1.384       .  A
C131        C147   1.421   1_655  A
C132        C148   1.423   1_655  A
C132        C140   1.390       .  A
C133        C141   1.389       .  A
C133        C150   1.423   1_655  A
C134        C142   1.384       .  A
C134        C653   1.421   1_645  A
C135        C143   1.383       .  A
C135        C651   1.418   1_545  A
C136        C150   1.422       .  A
C136        C144   1.389       .  A
C137        C145   1.389       .  A
C137        C148   1.422       .  A
C138        C146   1.383       .  A
C138        C149   1.419       .  A
C139        C140   1.378       .  A
C139        H151   1.080       .  S
C140        H152   1.082       .  S
C141        C142   1.378       .  A
C141        H153   1.082       .  S
C142        H154   1.080       .  S
C143        C144   1.374       .  A
C143        H155   1.079       .  S
C144        H156   1.082       .  S
C145        C146   1.375       .  A
C145        H157   1.082       .  S
C146        H158   1.080       .  S
C147        C234   1.482       .  S
C147        C639   1.418       .  A
C149        C236   1.482       .  S
C149        C638   1.421   1_455  A
C150       C1053   1.484       .  S
N161        C166   1.353       .  A
N161        C165   1.362       .  A
N161        H193   1.038       .  S
N162        C169   1.360       .  A
N162        C170   1.353       .  A
N163        C168   1.362       .  A
N163        C167   1.353       .  A
N163        H194   1.038       .  S
N164        C171   1.353       .  A
N164        C172   1.360       .  A
C165        C173   1.385       .  A
C165        C181   1.421       .  A
C166        C174   1.391       .  A
C166        C434   1.425       .  A
C167        C175   1.391       .  A
C167        C184   1.425       .  A
C168        C176   1.385       .  A
C168        C687   1.421   1_545  A
C169        C177   1.383       .  A
C169        C685   1.419       .  A
C170        C178   1.390       .  A
C170        C436   1.424       .  A
C171        C179   1.390       .  A
C171        C182   1.424       .  A
C172        C180   1.384       .  A
C172        C183   1.419       .  A
C173        C174   1.377       .  A
C173        H185   1.082       .  S
C174        H186   1.082       .  S
C175        C176   1.378       .  A
C175        H187   1.082       .  S
C176        H188   1.083       .  S
C177        C178   1.375       .  A
C177        H189   1.082       .  S
C178        H190   1.082       .  S
C179        C180   1.375       .  A
C179        H191   1.082       .  S
C180        H192   1.082       .  S
C181        C229   1.481       .  S
C181        C673   1.419       .  A
C182        C418   1.425   1_554  A
C183        C231   1.480       .  S
C183        C672   1.421       .  A
C184        C320   1.483       .  S
C184        C422   1.424   1_554  A
N195        C200   1.362       .  A
N195        C199   1.354       .  A
N195        H227   1.038       .  S
N196        C203   1.353       .  A
N196        C204   1.360       .  A
N197        C202   1.353       .  A
N197        C201   1.362       .  A
N197        H228   1.038       .  S
N198        C205   1.360       .  A
N198        C206   1.353       .  A
C199        C207   1.390       .  A
C199        C215   1.425       .  A
C200        C216   1.422       .  A
C200        C208   1.385       .  A
C201        C209   1.385       .  A
C201        C722   1.421   1_545  A
C202        C217   1.424       .  A
C202        C210   1.391       .  A
C203        C215   1.424       .  A
C203        C211   1.390       .  A
C204        C218   1.419       .  A
C204        C212   1.383       .  A
C205        C213   1.383       .  A
C205        C720   1.419   1_545  A
C206        C214   1.390       .  A
C206        C217   1.424       .  A
C207        C208   1.378       .  A
C207        H219   1.082       .  S
C208        H220   1.082       .  S
C209        C210   1.377       .  A
C209        H221   1.082       .  S
C210        H222   1.082       .  S
C211        C212   1.374       .  A
C211        H223   1.082       .  S
C212        H224   1.082       .  S
C213        C214   1.374       .  A
C213        H225   1.082       .  S
C214        H226   1.082       .  S
C216        C230   1.481       .  S
C216        C709   1.419       .  A
C218        C232   1.480       .  S
C218        C705   1.421       .  A
C229        C230   1.226       .  T
C231        C232   1.225       .  T
C233       C1242   1.227       .  T
C234       C1241   1.227       .  T
C235       C1244   1.227       .  T
C236       C1243   1.227       .  T
C237        C238   1.187       .  T
C239        C240   1.188       .  T
C241        C242   1.207       .  T
C243        C244   1.206       .  T
C245        C498   1.206       .  T
C246        C497   1.206       .  T
C247        C500   1.206   1_556  T
C248        C499   1.206       .  T
C249       C1258   1.188       .  T
C250       C1257   1.188       .  T
C251       C1260   1.187       .  T
C252       C1259   1.187       .  T
O253        C269   1.270       .  A
O253       Zn259   1.976       .  S
C254        O270   1.274   1_554  A
C254       O1023   1.273       .  A
C254        C367   1.485       .  S
O255       Cd262   2.064       .  S
O256        C274   1.269   1_455  A
O256       Cd265   2.028       .  S
O257       Cd261   2.069       .  S
O258       C1277   1.269   1_455  A
O258       Cd261   2.026       .  S
Zn259       O270   2.028       .  S
Zn259       O272   2.025       .  S
Zn259       O264   1.939       .  S
O260        C271   1.272       .  A
O260       Cd265   2.072       .  S
Cd261       O263   2.068       .  S
Cd261      O1272   1.993   1_455  S
Cd262       O266   2.069       .  S
Cd262       O275   2.027       .  S
O264      Cd1269   1.993       .  S
O264      Cd1021   1.992   1_556  S
Cd265       O267   2.069       .  S
Cd265      O1020   1.992   1_455  S
O266       C1281   1.273       .  A
O267       C1010   1.273       .  A
C268        O272   1.273   1_554  A
C268        C498   1.436       .  S
C269       O1266   1.269       .  A
C269        C502   1.405       .  S
C271        C499   1.436       .  S
C273       O1274   1.273       .  A
C273       C1121   1.482       .  S
C274       O1283   1.269       .  A
C274        C503   1.403       .  S
O275       C1282   1.269       .  A
O276        C292   1.274   1_455  A
O276       Zn282   2.026       .  S
C277        O293   1.270   1_655  A
C277       O1298   1.269       .  A
C277        C501   1.405       .  S
O278        C291   1.271       .  A
O278       Cd285   2.067       .  S
O279        C297   1.274       .  A
O279       Cd288   2.070       .  S
O280        C294   1.272       .  A
O280       Cd284   2.070       .  S
O281       C1300   1.273       .  A
O281       Cd284   2.067       .  S
Zn282       O293   1.975       .  S
Zn282       O295   2.021       .  S
Zn282       O287   1.939   1_455  S
O283        C294   1.272       .  A
O283       Cd288   2.072       .  S
Cd284       O286   2.028       .  S
Cd284      O1295   1.992       .  S
Cd285       O289   2.029       .  S
Cd285       O298   2.072       .  S
Cd285       O287   1.994   1_455  S
O286        C296   1.269       .  A
O287      Cd1292   1.992       .  S
O287      Cd1296   1.993       .  S
Cd288       O290   2.028       .  S
Cd288      O1295   1.993       .  S
O289       C1304   1.269   1_455  A
O290       C1285   1.269       .  A
C291        O295   1.272       .  A
C291        C495   1.435       .  S
C292       O1289   1.273       .  A
C292        C400   1.484   1_655  S
C294        C493   1.436       .  S
C296       O1297   1.269       .  A
C296        C504   1.403       .  S
C297       O1306   1.273       .  A
C297       C1410   1.484       .  S
O298       C1305   1.273       .  A
O299        C315   1.274       .  A
O299       Zn305   2.025       .  S
C300        O316   1.269       .  A
C300        O313   1.269       .  A
C300        C492   1.405       .  S
O301       Cd308   2.064       .  S
O302       Cd311   2.067       .  S
O303        C317   1.272   1_556  A
O303       Cd307   2.072       .  S
O304       Cd307   2.065       .  S
Zn305       O316   1.974       .  S
Zn305       O318   2.024       .  S
Zn305       O310   1.939       .  S
O306       Cd311   2.069       .  S
Cd307       O309   2.026       .  S
Cd308       O312   2.028       .  S
Cd308       O321   2.067       .  S
O309        C319   1.269       .  A
O310       Cd311   1.993       .  S
Cd311       O313   2.027       .  S
O312        C319   1.269       .  A
C314        O318   1.272       .  A
C314        C497   1.436       .  S
C315        C434   1.484       .  S
C317        C500   1.436       .  S
C319        C489   1.403       .  S
C320        O321   1.273   1_554  A
O322        C338   1.273       .  A
O322       Zn328   2.021       .  S
C323        O339   1.268       .  A
C323        O336   1.269       .  A
C323        C490   1.403       .  S
O324        C337   1.272       .  A
O324       Cd331   2.070       .  S
O325        C343   1.273       .  A
O325       Cd334   2.067       .  S
O326        C340   1.272       .  A
O326       Cd330   2.071       .  S
O327        C338   1.273       .  A
O327       Cd330   2.066       .  S
Zn328       O339   1.967       .  S
Zn328       O341   2.019       .  S
Zn328       O333   1.938       .  S
O329        C340   1.272       .  A
O329       Cd334   2.069       .  S
Cd330       O332   2.029       .  S
Cd330       O333   1.991       .  S
Cd331       O335   2.031       .  S
Cd331       O344   2.070       .  S
Cd331       O333   1.994       .  S
O332        C342   1.269       .  A
O333       Cd334   1.994       .  S
Cd334       O336   2.027       .  S
O335        C342   1.270       .  A
C337        O341   1.271       .  A
C337        C494   1.436       .  S
C338        C467   1.484       .  S
C340        C496   1.435       .  S
C342        C491   1.405       .  S
C343        O344   1.274       .  A
C343        C469   1.483       .  S
N345        C350   1.361       .  A
N345        C349   1.353       .  A
N345        H377   1.039       .  S
N346        C353   1.352       .  A
N346        C354   1.359       .  A
N347        C352   1.353       .  A
N347        C351   1.362       .  A
N347        H378   1.039       .  S
N348        C355   1.360       .  A
N348        C356   1.353       .  A
C349        C357   1.390       .  A
C349        C365   1.422   1_556  A
C350        C366   1.421       .  A
C350        C358   1.384       .  A
C351        C359   1.384       .  A
C351        C872   1.421   1_545  A
C352        C360   1.390       .  A
C353        C361   1.389       .  A
C354        C368   1.418       .  A
C354        C362   1.383       .  A
C355        C363   1.383       .  A
C355        C870   1.419       .  A
C356        C364   1.389       .  A
C356        C367   1.422   1_556  A
C357        C358   1.378       .  A
C357        H369   1.082       .  S
C358        H370   1.080       .  S
C359        C360   1.378       .  A
C359        H371   1.080       .  S
C360        H372   1.082       .  S
C361        C362   1.374       .  A
C361        H373   1.082       .  S
C362        H374   1.080       .  S
C363        C364   1.375       .  A
C363        H375   1.080       .  S
C364        H376   1.082       .  S
C365       C1029   1.482       .  S
C366        C485   1.482       .  S
C366        C859   1.419       .  A
C368        C487   1.482       .  S
C368        C855   1.421       .  A
N379        C384   1.353   1_455  A
N379        C383   1.362   1_455  A
N379        H411   1.039       .  S
N380        C387   1.359       .  A
N380        C388   1.353       .  A
N381        C386   1.362   1_455  A
N381        C385   1.353   1_455  A
N381        H412   1.039       .  S
N382        C389   1.353       .  A
N382        C390   1.360       .  A
C383        C391   1.384       .  A
C383        C399   1.421   1_655  A
C384        C400   1.423   1_655  A
C384        C392   1.390       .  A
C385        C393   1.389       .  A
C385        C402   1.423   1_655  A
C386        C905   1.421   1_645  A
C386        C394   1.384       .  A
C387        C903   1.418   1_545  A
C387        C395   1.383       .  A
C388        C402   1.422       .  A
C388        C396   1.389       .  A
C389        C397   1.389       .  A
C389        C400   1.422       .  A
C390        C398   1.383       .  A
C390        C401   1.419       .  A
C391        C392   1.378       .  A
C391        H403   1.080       .  S
C392        H404   1.082       .  S
C393        C394   1.378       .  A
C393        H405   1.082       .  S
C394        H406   1.080       .  S
C395        C396   1.374       .  A
C395        H407   1.079       .  S
C396        H408   1.082       .  S
C397        C398   1.375       .  A
C397        H409   1.082       .  S
C398        H410   1.080       .  S
C399        C486   1.482       .  S
C399        C891   1.418       .  A
C401        C488   1.482       .  S
C401        C890   1.421   1_455  A
C402       C1305   1.484       .  S
N413        C418   1.353       .  A
N413        C417   1.362       .  A
N413        H445   1.038       .  S
N414        C421   1.360       .  A
N414        C422   1.353       .  A
N415        C420   1.362       .  A
N415        C419   1.353       .  A
N415        H446   1.038       .  S
N416        C423   1.353       .  A
N416        C424   1.360       .  A
C417        C425   1.385       .  A
C417        C433   1.421       .  A
C418        C426   1.391       .  A
C419        C427   1.391       .  A
C419        C436   1.425       .  A
C420        C939   1.421   1_545  A
C420        C428   1.385       .  A
C421        C937   1.419       .  A
C421        C429   1.383       .  A
C422        C430   1.390       .  A
C423        C431   1.390       .  A
C423        C434   1.424       .  A
C424        C432   1.384       .  A
C424        C435   1.419       .  A
C425        C426   1.377       .  A
C425        H437   1.082       .  S
C426        H438   1.082       .  S
C427        C428   1.378       .  A
C427        H439   1.082       .  S
C428        H440   1.083       .  S
C429        C430   1.375       .  A
C429        H441   1.082       .  S
C430        H442   1.082       .  S
C431        C432   1.375       .  A
C431        H443   1.082       .  S
C432        H444   1.082       .  S
C433        C481   1.481       .  S
C433        C925   1.419       .  A
C435        C483   1.480       .  S
C435        C924   1.421       .  A
N447        C452   1.362       .  A
N447        C451   1.354       .  A
N447        H479   1.038       .  S
N448        C455   1.353       .  A
N448        C456   1.360       .  A
N449        C454   1.353       .  A
N449        C453   1.362       .  A
N449        H480   1.038       .  S
N450        C457   1.360       .  A
N450        C458   1.353       .  A
C451        C459   1.390       .  A
C451        C467   1.425       .  A
C452        C468   1.422       .  A
C452        C460   1.385       .  A
C453        C461   1.385       .  A
C453        C974   1.421   1_545  A
C454        C469   1.424       .  A
C454        C462   1.391       .  A
C455        C467   1.424       .  A
C455        C463   1.390       .  A
C456        C470   1.419       .  A
C456        C464   1.383       .  A
C457        C465   1.383       .  A
C457        C972   1.419   1_545  A
C458        C466   1.390       .  A
C458        C469   1.424       .  A
C459        C460   1.378       .  A
C459        H471   1.082       .  S
C460        H472   1.082       .  S
C461        C462   1.377       .  A
C461        H473   1.082       .  S
C462        H474   1.082       .  S
C463        C464   1.374       .  A
C463        H475   1.082       .  S
C464        H476   1.082       .  S
C465        C466   1.374       .  A
C465        H477   1.082       .  S
C466        H478   1.082       .  S
C468        C482   1.481       .  S
C468        C961   1.419       .  A
C470        C484   1.480       .  S
C470        C957   1.421       .  A
C481        C482   1.226       .  T
C483        C484   1.225       .  T
C485       C1494   1.227       .  T
C486       C1493   1.227       .  T
C487       C1496   1.227       .  T
C488       C1495   1.227       .  T
C489        C490   1.187       .  T
C491        C492   1.188       .  T
C493        C494   1.207       .  T
C495        C496   1.206       .  T
C501       C1510   1.188       .  T
C502       C1509   1.188       .  T
C503       C1512   1.187       .  T
C504       C1511   1.187       .  T
O505        C521   1.270       .  A
O505       Zn511   1.976       .  S
C506        O522   1.274       .  A
C506       O1779   1.273       .  A
C506        C619   1.486       .  S
O507        C772   1.271       .  A
O507       Cd514   2.064       .  S
O508        C526   1.269   1_455  A
O508       Cd517   2.028       .  S
O509        C775   1.272       .  A
O509       Cd513   2.068       .  S
O510       C1529   1.269       .  A
O510       Cd513   2.026       .  S
Zn511       O522   2.028       .  S
Zn511       O524   2.026       .  S
Zn511       O516   1.940       .  S
O512        C523   1.272       .  A
O512       Cd517   2.072       .  S
Cd513       O515   2.068       .  S
Cd513      O1524   1.993   1_455  S
Cd514       O518   2.069       .  S
Cd514       O527   2.027       .  S
Cd514       O768   1.993   1_554  S
O515        C777   1.273   1_455  A
O516      Cd1521   1.993       .  S
O516       Cd766   1.993       .  S
O516      Cd1777   1.992       .  S
Cd517       O519   2.069       .  S
Cd517      O1776   1.992   1_454  S
O518       C1533   1.273       .  A
O519       C1766   1.273       .  A
C520        O759   1.271       .  A
C520        O524   1.273       .  A
C520        C750   1.436       .  S
C521       O1518   1.269       .  A
C521        C754   1.405       .  S
C523        O761   1.272   1_554  A
C523        C751   1.436       .  S
C525        O767   1.273   1_654  A
C525       O1526   1.273       .  A
C525       C1877   1.482       .  S
C526       O1535   1.269       .  A
C526        C755   1.403       .  S
O527       C1534   1.269       .  A
O528        C544   1.274   1_455  A
O528       Zn534   2.026       .  S
C529        O545   1.270   1_655  A
C529       O1550   1.269       .  A
C529        C753   1.405       .  S
O530        C543   1.271       .  A
O530       Cd537   2.067       .  S
O531        C549   1.274       .  A
O531       Cd540   2.070       .  S
O532        C546   1.272       .  A
O532       Cd536   2.069       .  S
O533       C1552   1.273       .  A
O533       Cd536   2.067       .  S
Zn534       O545   1.975       .  S
Zn534       O547   2.021       .  S
Zn534       O539   1.939   1_455  S
O535        C546   1.272       .  A
O535       Cd540   2.072       .  S
Cd536       O538   2.028       .  S
Cd536      O1547   1.992       .  S
Cd537       O541   2.029       .  S
Cd537       O550   2.072       .  S
Cd537       O539   1.995   1_455  S
O538        C548   1.269       .  A
O539      Cd1544   1.992       .  S
O539      Cd1548   1.993       .  S
Cd540       O542   2.028       .  S
Cd540      O1547   1.993       .  S
O541       C1556   1.269   1_455  A
O542       C1537   1.269       .  A
C543        O547   1.272       .  A
C543        C747   1.435       .  S
C544       O1541   1.273       .  A
C544        C652   1.485   1_655  S
C546        C745   1.436       .  S
C548       O1549   1.269       .  A
C548        C756   1.403       .  S
C549       O1558   1.273       .  A
C549       C1662   1.483       .  S
O550       C1557   1.273       .  A
O551        C567   1.274       .  A
O551       Zn557   2.025       .  S
C552        O568   1.269       .  A
C552        O565   1.269       .  A
C552        C744   1.405       .  S
O553        C818   1.271       .  A
O553       Cd560   2.064       .  S
O554        C824   1.273       .  A
O554       Cd563   2.067       .  S
O555        C569   1.272       .  A
O555       Cd559   2.071       .  S
O556        C819   1.273       .  A
O556       Cd559   2.065       .  S
Zn557       O568   1.974       .  S
Zn557       O570   2.024       .  S
Zn557       O562   1.939       .  S
O558        C821   1.272       .  A
O558       Cd563   2.070       .  S
Cd559       O561   2.026       .  S
Cd559       O814   1.991       .  S
Cd560       O564   2.028       .  S
Cd560       O573   2.068       .  S
Cd560       O814   1.993       .  S
O561        C571   1.269       .  A
O562       Cd811   1.991   1_554  S
O562       Cd812   1.993   1_554  S
O562       Cd563   1.993       .  S
Cd563       O565   2.028       .  S
O564        C571   1.269       .  A
C566        O805   1.271       .  A
C566        O570   1.272   1_556  A
C566        C749   1.436       .  S
C567        O808   1.273   1_554  A
C567        C686   1.484       .  S
C569        O810   1.272       .  A
C569        C752   1.436       .  S
C571        C741   1.403       .  S
C572        O806   1.273       .  A
C572        O573   1.273       .  A
C572        C940   1.483       .  S
O574        C590   1.273       .  A
O574       Zn580   2.021       .  S
C575        O591   1.269       .  A
C575        O588   1.269       .  A
C575        C742   1.403       .  S
O576        C589   1.271       .  A
O576       Cd583   2.069       .  S
O577        C595   1.273       .  A
O577       Cd586   2.067       .  S
O578        C592   1.272       .  A
O578       Cd582   2.071       .  S
O579        C590   1.273       .  A
O579       Cd582   2.066       .  S
Zn580       O591   1.968       .  S
Zn580       O593   2.020       .  S
Zn580       O585   1.938       .  S
O581        C592   1.272       .  A
O581       Cd586   2.069       .  S
Cd582       O584   2.030       .  S
Cd582       O585   1.991       .  S
Cd583       O587   2.031       .  S
Cd583       O596   2.070       .  S
Cd583       O585   1.994       .  S
O584        C594   1.269       .  A
O585       Cd586   1.994       .  S
Cd586       O588   2.027       .  S
O587        C594   1.270       .  A
C589        O593   1.271       .  A
C589        C746   1.436       .  S
C590        C719   1.484       .  S
C592        C748   1.435       .  S
C594        C743   1.405       .  S
C595        O596   1.274       .  A
C595        C721   1.483       .  S
N597        C602   1.361       .  A
N597        C601   1.353       .  A
N597        H629   1.039       .  S
N598        C605   1.352       .  A
N598        C606   1.359       .  A
N599        C604   1.353       .  A
N599        C603   1.362       .  A
N599        H630   1.040       .  S
N600        C607   1.360       .  A
N600        C608   1.353       .  A
C601        C609   1.390       .  A
C601        C617   1.422       .  A
C602        C618   1.421   1_565  A
C602        C610   1.384       .  A
C603        C611   1.384       .  A
C604        C871   1.424       .  A
C604        C612   1.390       .  A
C605        C869   1.421       .  A
C605        C613   1.389       .  A
C606        C620   1.418       .  A
C606        C614   1.383       .  A
C607        C615   1.383       .  A
C608        C616   1.389       .  A
C608        C619   1.422       .  A
C609        C610   1.378       .  A
C609        H621   1.082       .  S
C610        H622   1.080       .  S
C611        C612   1.378       .  A
C611        H623   1.080       .  S
C612        H624   1.082       .  S
C613        C614   1.374       .  A
C613        H625   1.082       .  S
C614        H626   1.079       .  S
C615        C616   1.375       .  A
C615        H627   1.080       .  S
C616        H628   1.082       .  S
C617       C1785   1.482       .  S
C617        C857   1.421       .  A
C618        C737   1.482   1_545  S
C619        C856   1.424       .  A
C620        C739   1.482       .  S
N631        C636   1.353   1_455  A
N631        C635   1.362   1_455  A
N631        H663   1.039       .  S
N632        C639   1.359       .  A
N632        C640   1.353       .  A
N633        C638   1.362   1_455  A
N633        C637   1.353   1_455  A
N633        H664   1.039       .  S
N634        C641   1.353       .  A
N634        C642   1.360       .  A
C635        C643   1.384       .  A
C635        C651   1.421   1_655  A
C636        C652   1.423   1_655  A
C636        C644   1.390       .  A
C637        C645   1.389       .  A
C637        C654   1.423   1_655  A
C638        C646   1.384       .  A
C639        C647   1.383       .  A
C640        C654   1.422       .  A
C640        C648   1.389       .  A
C641        C649   1.389       .  A
C641        C652   1.422       .  A
C642        C650   1.383       .  A
C642        C653   1.419       .  A
C643        C644   1.378       .  A
C643        H655   1.080       .  S
C644        H656   1.082       .  S
C645        C646   1.378       .  A
C645        H657   1.082       .  S
C646        H658   1.080       .  S
C647        C648   1.374       .  A
C647        H659   1.080       .  S
C648        H660   1.082       .  S
C649        C650   1.375       .  A
C649        H661   1.082       .  S
C650        H662   1.080       .  S
C651        C738   1.482       .  S
C653        C740   1.482       .  S
C654       C1557   1.483       .  S
N665        C670   1.353       .  A
N665        C669   1.362       .  A
N665        H697   1.038       .  S
N666        C673   1.360       .  A
N666        C674   1.353       .  A
N667        C672   1.362       .  A
N667        C671   1.353       .  A
N667        H698   1.038       .  S
N668        C675   1.353       .  A
N668        C676   1.360       .  A
C669        C677   1.385       .  A
C669        C685   1.421   1_565  A
C670        C938   1.425       .  A
C670        C678   1.391       .  A
C671        C679   1.391       .  A
C671        C688   1.425       .  A
C672        C680   1.385       .  A
C673        C681   1.383       .  A
C674        C940   1.424       .  A
C674        C682   1.390       .  A
C675        C683   1.390       .  A
C675        C686   1.424       .  A
C676        C684   1.384       .  A
C676        C687   1.419       .  A
C677        C678   1.377       .  A
C677        H689   1.082       .  S
C678        H690   1.082       .  S
C679        C680   1.378       .  A
C679        H691   1.082       .  S
C680        H692   1.083       .  S
C681        C682   1.375       .  A
C681        H693   1.082       .  S
C682        H694   1.082       .  S
C683        C684   1.375       .  A
C683        H695   1.082       .  S
C684        H696   1.082       .  S
C685        C733   1.481   1_545  S
C686        C922   1.425   1_554  A
C687        C735   1.480   1_565  S
C688        C824   1.483       .  S
C688        C926   1.424   1_554  A
N699        C704   1.362       .  A
N699        C703   1.354       .  A
N699        H731   1.038       .  S
N700        C707   1.353       .  A
N700        C708   1.360       .  A
N701        C706   1.353       .  A
N701        C705   1.362       .  A
N701        H732   1.037       .  S
N702        C709   1.360       .  A
N702        C710   1.353       .  A
C703        C711   1.390       .  A
C703        C719   1.425       .  A
C704        C720   1.422       .  A
C704        C712   1.385       .  A
C705        C713   1.385       .  A
C706        C721   1.424       .  A
C706        C714   1.391       .  A
C707        C719   1.424       .  A
C707        C715   1.390       .  A
C708        C722   1.419       .  A
C708        C716   1.383       .  A
C709        C717   1.383       .  A
C710        C718   1.390       .  A
C710        C721   1.424       .  A
C711        C712   1.378       .  A
C711        H723   1.082       .  S
C712        H724   1.082       .  S
C713        C714   1.377       .  A
C713        H725   1.082       .  S
C714        H726   1.082       .  S
C715        C716   1.374       .  A
C715        H727   1.082       .  S
C716        H728   1.082       .  S
C717        C718   1.374       .  A
C717        H729   1.082       .  S
C718        H730   1.082       .  S
C720        C734   1.481       .  S
C722        C736   1.480   1_565  S
C733        C734   1.226       .  T
C735        C736   1.225       .  T
C737       C1746   1.227       .  T
C738       C1745   1.227       .  T
C739       C1748   1.227       .  T
C740       C1747   1.227       .  T
C741        C742   1.187       .  T
C743        C744   1.188       .  T
C745        C746   1.207       .  T
C747        C748   1.206       .  T
C749       C1002   1.206       .  T
C750       C1001   1.206       .  T
C751       C1004   1.206       .  T
C752       C1003   1.206       .  T
C753       C1762   1.188   1_655  T
C754       C1761   1.188       .  T
C755       C1764   1.187       .  T
C756       C1763   1.187       .  T
O757        C773   1.270       .  A
O757       Zn763   1.976       .  S
C758        O774   1.274   1_554  A
C758       O1527   1.273       .  A
C758        C871   1.486       .  S
O759       Cd766   2.064       .  S
O760        C778   1.269   1_455  A
O760       Cd769   2.028       .  S
O761       Cd765   2.068       .  S
O762       C1781   1.269       .  A
O762       Cd765   2.026       .  S
Zn763       O774   2.028       .  S
Zn763       O776   2.026       .  S
Zn763       O768   1.940       .  S
O764        C775   1.272       .  A
O764       Cd769   2.072       .  S
Cd765       O767   2.068       .  S
Cd765      O1776   1.993   1_455  S
Cd766       O770   2.069       .  S
Cd766       O779   2.027       .  S
O768      Cd1773   1.993       .  S
O768      Cd1525   1.992   1_556  S
Cd769       O771   2.069       .  S
Cd769      O1524   1.992   1_455  S
O770       C1785   1.273       .  A
O771       C1514   1.273       .  A
C772        O776   1.273   1_554  A
C772       C1002   1.436   1_554  S
C773       O1770   1.269       .  A
C773       C1006   1.405       .  S
C775       C1003   1.436       .  S
C777       O1778   1.273       .  A
C777       C1625   1.482       .  S
C778       O1787   1.269       .  A
C778       C1007   1.403       .  S
O779       C1786   1.269       .  A
O780        C796   1.274   1_455  A
O780       Zn786   2.026       .  S
C781        O797   1.270   1_655  A
C781       O1802   1.269       .  A
C781       C1005   1.405       .  S
O782        C795   1.271       .  A
O782       Cd789   2.067       .  S
O783        C801   1.274       .  A
O783       Cd792   2.070       .  S
O784        C798   1.272       .  A
O784       Cd788   2.069       .  S
O785       C1804   1.273       .  A
O785       Cd788   2.067       .  S
Zn786       O797   1.975       .  S
Zn786       O799   2.021       .  S
Zn786       O791   1.939   1_455  S
O787        C798   1.272       .  A
O787       Cd792   2.072       .  S
Cd788       O790   2.028       .  S
Cd788      O1799   1.992       .  S
Cd789       O793   2.029       .  S
Cd789       O802   2.072       .  S
Cd789       O791   1.995   1_455  S
O790        C800   1.269       .  A
O791      Cd1796   1.992       .  S
O791      Cd1800   1.993       .  S
Cd792       O794   2.028       .  S
Cd792      O1799   1.993       .  S
O793       C1808   1.269   1_455  A
O794       C1789   1.269       .  A
C795        O799   1.272       .  A
C795        C999   1.435       .  S
C796       O1793   1.273       .  A
C796        C904   1.485   1_655  S
C798        C997   1.436       .  S
C800       O1801   1.269       .  A
C800       C1008   1.403       .  S
C801       O1810   1.273       .  A
C801       C1914   1.483       .  S
O802       C1809   1.273       .  A
O803        C819   1.274       .  A
O803       Zn809   2.025       .  S
C804        O820   1.269       .  A
C804        O817   1.269       .  A
C804        C996   1.405       .  S
O805       Cd812   2.064       .  S
O806       Cd815   2.067       .  S
O807        C821   1.272   1_556  A
O807       Cd811   2.071       .  S
O808       Cd811   2.065       .  S
Zn809       O820   1.974       .  S
Zn809       O822   2.024       .  S
Zn809       O814   1.939       .  S
O810       Cd815   2.070       .  S
Cd811       O813   2.026       .  S
Cd812       O816   2.028       .  S
Cd812       O825   2.068       .  S
O813        C823   1.269       .  A
O814       Cd815   1.993       .  S
Cd815       O817   2.028       .  S
O816        C823   1.269       .  A
C818        O822   1.272       .  A
C818       C1001   1.436       .  S
C819        C938   1.484       .  S
C821       C1004   1.436       .  S
C823        C993   1.403       .  S
C824        O825   1.273   1_554  A
O826        C842   1.273       .  A
O826       Zn832   2.021       .  S
C827        O843   1.269       .  A
C827        O840   1.269       .  A
C827        C994   1.403       .  S
O828        C841   1.271       .  A
O828       Cd835   2.069       .  S
O829        C847   1.273       .  A
O829       Cd838   2.067       .  S
O830        C844   1.272       .  A
O830       Cd834   2.071       .  S
O831        C842   1.273       .  A
O831       Cd834   2.066       .  S
Zn832       O843   1.968       .  S
Zn832       O845   2.020       .  S
Zn832       O837   1.938       .  S
O833        C844   1.272       .  A
O833       Cd838   2.069       .  S
Cd834       O836   2.030       .  S
Cd834       O837   1.991       .  S
Cd835       O839   2.031       .  S
Cd835       O848   2.070       .  S
Cd835       O837   1.994       .  S
O836        C846   1.269       .  A
O837       Cd838   1.994       .  S
Cd838       O840   2.027       .  S
O839        C846   1.270       .  A
C841        O845   1.271       .  A
C841        C998   1.436       .  S
C842        C971   1.484       .  S
C844       C1000   1.435       .  S
C846        C995   1.405       .  S
C847        O848   1.274       .  A
C847        C973   1.483       .  S
N849        C854   1.361       .  A
N849        C853   1.353       .  A
N849        H881   1.039       .  S
N850        C857   1.352       .  A
N850        C858   1.359       .  A
N851        C856   1.353       .  A
N851        C855   1.362       .  A
N851        H882   1.040       .  S
N852        C859   1.360       .  A
N852        C860   1.353       .  A
C853        C861   1.390       .  A
C853        C869   1.422   1_556  A
C854        C870   1.421   1_565  A
C854        C862   1.384       .  A
C855        C863   1.384       .  A
C856        C864   1.390       .  A
C857        C865   1.389       .  A
C858        C872   1.418       .  A
C858        C866   1.383       .  A
C859        C867   1.383       .  A
C860        C868   1.389       .  A
C860        C871   1.422   1_556  A
C861        C862   1.378       .  A
C861        H873   1.082       .  S
C862        H874   1.080       .  S
C863        C864   1.378       .  A
C863        H875   1.080       .  S
C864        H876   1.082       .  S
C865        C866   1.374       .  A
C865        H877   1.082       .  S
C866        H878   1.079       .  S
C867        C868   1.375       .  A
C867        H879   1.080       .  S
C868        H880   1.082       .  S
C869       C1533   1.482       .  S
C870        C989   1.482   1_545  S
C872        C991   1.482       .  S
N883        C888   1.353   1_455  A
N883        C887   1.362   1_455  A
N883        H915   1.039       .  S
N884        C891   1.359       .  A
N884        C892   1.353       .  A
N885        C890   1.362   1_455  A
N885        C889   1.353   1_455  A
N885        H916   1.039       .  S
N886        C893   1.353       .  A
N886        C894   1.360       .  A
C887        C895   1.384       .  A
C887        C903   1.421   1_655  A
C888        C904   1.423   1_655  A
C888        C896   1.390       .  A
C889        C897   1.389       .  A
C889        C906   1.423   1_655  A
C890        C898   1.384       .  A
C891        C899   1.383       .  A
C892        C906   1.422       .  A
C892        C900   1.389       .  A
C893        C901   1.389       .  A
C893        C904   1.422       .  A
C894        C902   1.383       .  A
C894        C905   1.419       .  A
C895        C896   1.378       .  A
C895        H907   1.080       .  S
C896        H908   1.082       .  S
C897        C898   1.378       .  A
C897        H909   1.082       .  S
C898        H910   1.080       .  S
C899        C900   1.374       .  A
C899        H911   1.080       .  S
C900        H912   1.082       .  S
C901        C902   1.375       .  A
C901        H913   1.082       .  S
C902        H914   1.080       .  S
C903        C990   1.482       .  S
C905        C992   1.482       .  S
C906       C1809   1.483       .  S
N917        C922   1.353       .  A
N917        C921   1.362       .  A
N917        H949   1.038       .  S
N918        C925   1.360       .  A
N918        C926   1.353       .  A
N919        C924   1.362       .  A
N919        C923   1.353       .  A
N919        H950   1.038       .  S
N920        C927   1.353       .  A
N920        C928   1.360       .  A
C921        C929   1.385       .  A
C921        C937   1.421   1_565  A
C922        C930   1.391       .  A
C923        C931   1.391       .  A
C923        C940   1.425       .  A
C924        C932   1.385       .  A
C925        C933   1.383       .  A
C926        C934   1.390       .  A
C927        C935   1.390       .  A
C927        C938   1.424       .  A
C928        C936   1.384       .  A
C928        C939   1.419       .  A
C929        C930   1.377       .  A
C929        H941   1.082       .  S
C930        H942   1.082       .  S
C931        C932   1.378       .  A
C931        H943   1.082       .  S
C932        H944   1.083       .  S
C933        C934   1.375       .  A
C933        H945   1.082       .  S
C934        H946   1.082       .  S
C935        C936   1.375       .  A
C935        H947   1.082       .  S
C936        H948   1.082       .  S
C937        C985   1.481   1_545  S
C939        C987   1.480   1_565  S
N951        C956   1.362       .  A
N951        C955   1.354       .  A
N951        H983   1.038       .  S
N952        C959   1.353       .  A
N952        C960   1.360       .  A
N953        C958   1.353       .  A
N953        C957   1.362       .  A
N953        H984   1.038       .  S
N954        C961   1.360       .  A
N954        C962   1.353       .  A
C955        C963   1.390       .  A
C955        C971   1.425       .  A
C956        C972   1.422       .  A
C956        C964   1.385       .  A
C957        C965   1.385       .  A
C958        C973   1.424       .  A
C958        C966   1.391       .  A
C959        C971   1.424       .  A
C959        C967   1.390       .  A
C960        C974   1.419       .  A
C960        C968   1.383       .  A
C961        C969   1.383       .  A
C962        C970   1.390       .  A
C962        C973   1.424       .  A
C963        C964   1.378       .  A
C963        H975   1.082       .  S
C964        H976   1.082       .  S
C965        C966   1.377       .  A
C965        H977   1.082       .  S
C966        H978   1.082       .  S
C967        C968   1.374       .  A
C967        H979   1.082       .  S
C968        H980   1.082       .  S
C969        C970   1.374       .  A
C969        H981   1.082       .  S
C970        H982   1.082       .  S
C972        C986   1.481       .  S
C974        C988   1.480   1_565  S
C985        C986   1.226       .  T
C987        C988   1.225       .  T
C989       C1998   1.227       .  T
C990       C1997   1.227       .  T
C991       C2000   1.227       .  T
C992       C1999   1.227       .  T
C993        C994   1.187       .  T
C995        C996   1.188       .  T
C997        C998   1.207       .  T
C999       C1000   1.206       .  T
C1005      C2014   1.188   1_655  T
C1006      C2013   1.188       .  T
C1007      C2016   1.187       .  T
C1008      C2015   1.187       .  T
O1009      C1025   1.270       .  A
O1009     Zn1015   1.976       .  S
C1010      O1026   1.274   1_455  A
C1010      C1123   1.485       .  S
O1011      C1276   1.271       .  A
O1011     Cd1018   2.064       .  S
O1012      C1030   1.269       .  A
O1012     Cd1021   2.028       .  S
O1013      C1279   1.272       .  A
O1013     Cd1017   2.069       .  S
O1014     Cd1017   2.026       .  S
Zn1015     O1026   2.028       .  S
Zn1015     O1028   2.025       .  S
Zn1015     O1020   1.939       .  S
O1016      C1027   1.272   1_554  A
O1016     Cd1021   2.072       .  S
Cd1017     O1019   2.068       .  S
Cd1018     O1022   2.069       .  S
Cd1018     O1031   2.027       .  S
Cd1018     O1272   1.993   1_554  S
O1019      C1281   1.273       .  A
O1020     Cd1270   1.993       .  S
Cd1021     O1023   2.069       .  S
C1024      O1263   1.271       .  A
C1024      O1028   1.273       .  A
C1024      C1254   1.436       .  S
C1025      C1258   1.405       .  S
C1027      O1265   1.272       .  A
C1027      C1255   1.436       .  S
C1029      O1271   1.273   1_554  A
C1030      C1259   1.403       .  S
O1032      C1048   1.274       .  A
O1032     Zn1038   2.026       .  S
C1033      O1049   1.270       .  A
C1033      C1257   1.405       .  S
O1034      C1047   1.271       .  A
O1034     Cd1041   2.067       .  S
O1035      C1053   1.274   1_655  A
O1035     Cd1044   2.070       .  S
O1036      C1050   1.272       .  A
O1036     Cd1040   2.070       .  S
O1037     Cd1040   2.067       .  S
Zn1038     O1049   1.975       .  S
Zn1038     O1051   2.021       .  S
Zn1038     O1043   1.939       .  S
O1039      C1050   1.272       .  A
O1039     Cd1044   2.072       .  S
Cd1040     O1042   2.028       .  S
Cd1041     O1045   2.029       .  S
Cd1041     O1054   2.072       .  S
Cd1041     O1043   1.994       .  S
O1042      C1052   1.269       .  A
Cd1044     O1046   2.028       .  S
C1047      O1051   1.272       .  A
C1047      C1251   1.435       .  S
C1048      C1156   1.484       .  S
C1050      C1249   1.436       .  S
C1052      C1260   1.403       .  S
O1055      C1071   1.274       .  A
O1055     Zn1061   2.025       .  S
C1056      O1072   1.269       .  A
C1056      O1069   1.269       .  A
C1056      C1248   1.405       .  S
O1057      C1322   1.271       .  A
O1057     Cd1064   2.064       .  S
O1058      C1328   1.273       .  A
O1058     Cd1067   2.067       .  S
O1059      C1073   1.272       .  A
O1059     Cd1063   2.072       .  S
O1060      C1323   1.273       .  A
O1060     Cd1063   2.065       .  S
Zn1061     O1072   1.974       .  S
Zn1061     O1074   2.024       .  S
Zn1061     O1066   1.939       .  S
O1062      C1325   1.272       .  A
O1062     Cd1067   2.069       .  S
Cd1063     O1065   2.026       .  S
Cd1063     O1318   1.991       .  S
Cd1064     O1068   2.028       .  S
Cd1064     O1077   2.067       .  S
Cd1064     O1318   1.993       .  S
O1065      C1075   1.269       .  A
O1066     Cd1315   1.991   1_554  S
O1066     Cd1316   1.993   1_554  S
O1066     Cd1067   1.993       .  S
Cd1067     O1069   2.027       .  S
O1068      C1075   1.269       .  A
C1070      O1309   1.271   1_554  A
C1070      O1074   1.272       .  A
C1070      C1253   1.436       .  S
C1071      O1312   1.273   1_554  A
C1071      C1190   1.484       .  S
C1073      O1314   1.272       .  A
C1073      C1256   1.436       .  S
C1075      C1245   1.403       .  S
C1076      O1310   1.273       .  A
C1076      O1077   1.273       .  A
C1076      C1444   1.483       .  S
O1078      C1094   1.273       .  A
O1078     Zn1084   2.021       .  S
C1079      O1095   1.268       .  A
C1079      O1092   1.269       .  A
C1079      C1246   1.403       .  S
O1080      C1093   1.272       .  A
O1080     Cd1087   2.070       .  S
O1081      C1099   1.273       .  A
O1081     Cd1090   2.067       .  S
O1082      C1096   1.272       .  A
O1082     Cd1086   2.071       .  S
O1083      C1094   1.273       .  A
O1083     Cd1086   2.066       .  S
Zn1084     O1095   1.967       .  S
Zn1084     O1097   2.019       .  S
Zn1084     O1089   1.938       .  S
O1085      C1096   1.272       .  A
O1085     Cd1090   2.069       .  S
Cd1086     O1088   2.029       .  S
Cd1086     O1089   1.991       .  S
Cd1087     O1091   2.031       .  S
Cd1087     O1100   2.070       .  S
Cd1087     O1089   1.994       .  S
O1088      C1098   1.269       .  A
O1089     Cd1090   1.994       .  S
Cd1090     O1092   2.027       .  S
O1091      C1098   1.270       .  A
C1093      O1097   1.271       .  A
C1093      C1250   1.436       .  S
C1094      C1223   1.484       .  S
C1096      C1252   1.435       .  S
C1098      C1247   1.405       .  S
C1099      O1100   1.274       .  A
C1099      C1225   1.483       .  S
N1101      C1106   1.361   1_455  A
N1101      C1105   1.353   1_455  A
N1101      H1133   1.039       .  S
N1102      C1109   1.352       .  A
N1102      C1110   1.359       .  A
N1103      C1108   1.353   1_455  A
N1103      C1107   1.362   1_455  A
N1103      H1134   1.039       .  S
N1104      C1111   1.360       .  A
N1104      C1112   1.353       .  A
C1105      C1113   1.390       .  A
C1105      C1121   1.422       .  A
C1106      C1122   1.421   1_655  A
C1106      C1114   1.384       .  A
C1107      C1115   1.384       .  A
C1107      C1628   1.421   1_645  A
C1108      C1375   1.423   1_655  A
C1108      C1116   1.390       .  A
C1109      C1373   1.421   1_455  A
C1109      C1117   1.389       .  A
C1110      C1124   1.418       .  A
C1110      C1118   1.383       .  A
C1111      C1119   1.383       .  A
C1111      C1626   1.419       .  A
C1112      C1120   1.389       .  A
C1112      C1123   1.422       .  A
C1113      C1114   1.378       .  A
C1113      H1125   1.082       .  S
C1114      H1126   1.080       .  S
C1115      C1116   1.378       .  A
C1115      H1127   1.080       .  S
C1116      H1128   1.082       .  S
C1117      C1118   1.374       .  A
C1117      H1129   1.082       .  S
C1118      H1130   1.080       .  S
C1119      C1120   1.375       .  A
C1119      H1131   1.080       .  S
C1120      H1132   1.082       .  S
C1121      C1361   1.421   1_655  A
C1122      C1241   1.482       .  S
C1122      C1615   1.419       .  A
C1123      C1360   1.423   1_455  A
C1124      C1243   1.482       .  S
C1124      C1611   1.421   1_455  A
N1135      C1140   1.353       .  A
N1135      C1139   1.362       .  A
N1135      H1167   1.039       .  S
N1136      C1143   1.359       .  A
N1136      C1144   1.353       .  A
N1137      C1142   1.362       .  A
N1137      C1141   1.353       .  A
N1137      H1168   1.039       .  S
N1138      C1145   1.353       .  A
N1138      C1146   1.360       .  A
C1139      C1147   1.384       .  A
C1139      C1155   1.421       .  A
C1140      C1156   1.423       .  A
C1140      C1148   1.390       .  A
C1141      C1149   1.389       .  A
C1141      C1158   1.423       .  A
C1142      C1661   1.421   1_545  A
C1142      C1150   1.384       .  A
C1143      C1659   1.418   1_545  A
C1143      C1151   1.383       .  A
C1144      C1158   1.422       .  A
C1144      C1152   1.389       .  A
C1145      C1153   1.389       .  A
C1145      C1156   1.422       .  A
C1146      C1154   1.383       .  A
C1146      C1157   1.419       .  A
C1147      C1148   1.378       .  A
C1147      H1159   1.080       .  S
C1148      H1160   1.082       .  S
C1149      C1150   1.378       .  A
C1149      H1161   1.082       .  S
C1150      H1162   1.080       .  S
C1151      C1152   1.374       .  A
C1151      H1163   1.079       .  S
C1152      H1164   1.082       .  S
C1153      C1154   1.375       .  A
C1153      H1165   1.082       .  S
C1154      H1166   1.080       .  S
C1155      C1242   1.482       .  S
C1155      C1647   1.418       .  A
C1157      C1244   1.482       .  S
C1157      C1646   1.421       .  A
N1169      C1174   1.353       .  A
N1169      C1173   1.362       .  A
N1169      H1201   1.038       .  S
N1170      C1177   1.360       .  A
N1170      C1178   1.353       .  A
N1171      C1176   1.362       .  A
N1171      C1175   1.353       .  A
N1171      H1202   1.038       .  S
N1172      C1179   1.353       .  A
N1172      C1180   1.360       .  A
C1173      C1181   1.385       .  A
C1173      C1189   1.421       .  A
C1174      C1442   1.425       .  A
C1174      C1182   1.391       .  A
C1175      C1183   1.391       .  A
C1175      C1192   1.425       .  A
C1176      C1695   1.421   1_545  A
C1176      C1184   1.385       .  A
C1177      C1693   1.419       .  A
C1177      C1185   1.383       .  A
C1178      C1444   1.424       .  A
C1178      C1186   1.390       .  A
C1179      C1187   1.390       .  A
C1179      C1190   1.424       .  A
C1180      C1188   1.384       .  A
C1180      C1191   1.419       .  A
C1181      C1182   1.377       .  A
C1181      H1193   1.082       .  S
C1182      H1194   1.082       .  S
C1183      C1184   1.378       .  A
C1183      H1195   1.082       .  S
C1184      H1196   1.083       .  S
C1185      C1186   1.375       .  A
C1185      H1197   1.082       .  S
C1186      H1198   1.082       .  S
C1187      C1188   1.375       .  A
C1187      H1199   1.082       .  S
C1188      H1200   1.082       .  S
C1189      C1237   1.481       .  S
C1189      C1681   1.419       .  A
C1190      C1426   1.425   1_554  A
C1191      C1239   1.480       .  S
C1191      C1680   1.421       .  A
C1192      C1328   1.483       .  S
C1192      C1430   1.424   1_554  A
N1203      C1208   1.362       .  A
N1203      C1207   1.354       .  A
N1203      H1235   1.038       .  S
N1204      C1211   1.353       .  A
N1204      C1212   1.360       .  A
N1205      C1210   1.353       .  A
N1205      C1209   1.362       .  A
N1205      H1236   1.038       .  S
N1206      C1213   1.360       .  A
N1206      C1214   1.353       .  A
C1207      C1215   1.390       .  A
C1207      C1223   1.425       .  A
C1208      C1224   1.422       .  A
C1208      C1216   1.385       .  A
C1209      C1217   1.385       .  A
C1209      C1730   1.421   1_545  A
C1210      C1225   1.424       .  A
C1210      C1218   1.391       .  A
C1211      C1223   1.424       .  A
C1211      C1219   1.390       .  A
C1212      C1226   1.419       .  A
C1212      C1220   1.383       .  A
C1213      C1221   1.383       .  A
C1213      C1728   1.419   1_545  A
C1214      C1222   1.390       .  A
C1214      C1225   1.424       .  A
C1215      C1216   1.378       .  A
C1215      H1227   1.082       .  S
C1216      H1228   1.082       .  S
C1217      C1218   1.377       .  A
C1217      H1229   1.082       .  S
C1218      H1230   1.082       .  S
C1219      C1220   1.374       .  A
C1219      H1231   1.082       .  S
C1220      H1232   1.082       .  S
C1221      C1222   1.374       .  A
C1221      H1233   1.082       .  S
C1222      H1234   1.082       .  S
C1224      C1238   1.481       .  S
C1224      C1717   1.419       .  A
C1226      C1240   1.480       .  S
C1226      C1713   1.421       .  A
C1237      C1238   1.226       .  T
C1239      C1240   1.225       .  T
C1245      C1246   1.187       .  T
C1247      C1248   1.188       .  T
C1249      C1250   1.207       .  T
C1251      C1252   1.206       .  T
C1253      C1506   1.206       .  T
C1254      C1505   1.206       .  T
C1255      C1508   1.206   1_556  T
C1256      C1507   1.206       .  T
O1261      C1277   1.270       .  A
O1261     Zn1267   1.976       .  S
C1262      O1278   1.274   1_454  A
C1262      C1375   1.485       .  S
O1263     Cd1270   2.064       .  S
O1264      C1282   1.269       .  A
O1264     Cd1273   2.028       .  S
O1265     Cd1269   2.069       .  S
O1266     Cd1269   2.026       .  S
Zn1267     O1278   2.028       .  S
Zn1267     O1280   2.025       .  S
Zn1267     O1272   1.939       .  S
O1268      C1279   1.272       .  A
O1268     Cd1273   2.072       .  S
Cd1269     O1271   2.068       .  S
Cd1270     O1274   2.069       .  S
Cd1270     O1283   2.027       .  S
Cd1273     O1275   2.069       .  S
C1276      O1280   1.273   1_554  A
C1276      C1506   1.436       .  S
C1277      C1510   1.405       .  S
C1279      C1507   1.436       .  S
C1282      C1511   1.403       .  S
O1284      C1300   1.274       .  A
O1284     Zn1290   2.026       .  S
C1285      O1301   1.270       .  A
C1285      C1509   1.405       .  S
O1286      C1299   1.271       .  A
O1286     Cd1293   2.067       .  S
O1287      C1305   1.274   1_655  A
O1287     Cd1296   2.070       .  S
O1288      C1302   1.272       .  A
O1288     Cd1292   2.070       .  S
O1289     Cd1292   2.067       .  S
Zn1290     O1301   1.975       .  S
Zn1290     O1303   2.021       .  S
Zn1290     O1295   1.939       .  S
O1291      C1302   1.272       .  A
O1291     Cd1296   2.072       .  S
Cd1292     O1294   2.028       .  S
Cd1293     O1297   2.029       .  S
Cd1293     O1306   2.072       .  S
Cd1293     O1295   1.994       .  S
O1294      C1304   1.269       .  A
Cd1296     O1298   2.028       .  S
C1299      O1303   1.272       .  A
C1299      C1503   1.435       .  S
C1300      C1408   1.484       .  S
C1302      C1501   1.436       .  S
C1304      C1512   1.403       .  S
O1307      C1323   1.274       .  A
O1307     Zn1313   2.025       .  S
C1308      O1324   1.269       .  A
C1308      O1321   1.269       .  A
C1308      C1500   1.405       .  S
O1309     Cd1316   2.064       .  S
O1310     Cd1319   2.067       .  S
O1311      C1325   1.272   1_556  A
O1311     Cd1315   2.072       .  S
O1312     Cd1315   2.065       .  S
Zn1313     O1324   1.974       .  S
Zn1313     O1326   2.024       .  S
Zn1313     O1318   1.939       .  S
O1314     Cd1319   2.069       .  S
Cd1315     O1317   2.026       .  S
Cd1316     O1320   2.028       .  S
Cd1316     O1329   2.067       .  S
O1317      C1327   1.269       .  A
O1318     Cd1319   1.993       .  S
Cd1319     O1321   2.027       .  S
O1320      C1327   1.269       .  A
C1322      O1326   1.272       .  A
C1322      C1505   1.436       .  S
C1323      C1442   1.484       .  S
C1325      C1508   1.436       .  S
C1327      C1497   1.403       .  S
C1328      O1329   1.273   1_554  A
O1330      C1346   1.273       .  A
O1330     Zn1336   2.021       .  S
C1331      O1347   1.268       .  A
C1331      O1344   1.269       .  A
C1331      C1498   1.403       .  S
O1332      C1345   1.272       .  A
O1332     Cd1339   2.070       .  S
O1333      C1351   1.273       .  A
O1333     Cd1342   2.067       .  S
O1334      C1348   1.272       .  A
O1334     Cd1338   2.071       .  S
O1335      C1346   1.273       .  A
O1335     Cd1338   2.066       .  S
Zn1336     O1347   1.967       .  S
Zn1336     O1349   2.019       .  S
Zn1336     O1341   1.938       .  S
O1337      C1348   1.272       .  A
O1337     Cd1342   2.069       .  S
Cd1338     O1340   2.029       .  S
Cd1338     O1341   1.991       .  S
Cd1339     O1343   2.031       .  S
Cd1339     O1352   2.070       .  S
Cd1339     O1341   1.994       .  S
O1340      C1350   1.269       .  A
O1341     Cd1342   1.994       .  S
Cd1342     O1344   2.027       .  S
O1343      C1350   1.270       .  A
C1345      O1349   1.271       .  A
C1345      C1502   1.436       .  S
C1346      C1475   1.484       .  S
C1348      C1504   1.435       .  S
C1350      C1499   1.405       .  S
C1351      O1352   1.274       .  A
C1351      C1477   1.483       .  S
N1353      C1358   1.361   1_455  A
N1353      C1357   1.353   1_455  A
N1353      H1385   1.039       .  S
N1354      C1361   1.352       .  A
N1354      C1362   1.359       .  A
N1355      C1360   1.353   1_455  A
N1355      C1359   1.362   1_455  A
N1355      H1386   1.039       .  S
N1356      C1363   1.360       .  A
N1356      C1364   1.353       .  A
C1357      C1365   1.390       .  A
C1357      C1373   1.422   1_556  A
C1358      C1374   1.421   1_655  A
C1358      C1366   1.384       .  A
C1359      C1367   1.384       .  A
C1359      C1880   1.421   1_645  A
C1360      C1368   1.390       .  A
C1361      C1369   1.389       .  A
C1362      C1376   1.418       .  A
C1362      C1370   1.383       .  A
C1363      C1371   1.383       .  A
C1363      C1878   1.419       .  A
C1364      C1372   1.389       .  A
C1364      C1375   1.422   1_556  A
C1365      C1366   1.378       .  A
C1365      H1377   1.082       .  S
C1366      H1378   1.080       .  S
C1367      C1368   1.378       .  A
C1367      H1379   1.080       .  S
C1368      H1380   1.082       .  S
C1369      C1370   1.374       .  A
C1369      H1381   1.082       .  S
C1370      H1382   1.080       .  S
C1371      C1372   1.375       .  A
C1371      H1383   1.080       .  S
C1372      H1384   1.082       .  S
C1374      C1493   1.482       .  S
C1374      C1867   1.419       .  A
C1376      C1495   1.482       .  S
C1376      C1863   1.421   1_455  A
N1387      C1392   1.353       .  A
N1387      C1391   1.362       .  A
N1387      H1419   1.039       .  S
N1388      C1395   1.359       .  A
N1388      C1396   1.353       .  A
N1389      C1394   1.362       .  A
N1389      C1393   1.353       .  A
N1389      H1420   1.039       .  S
N1390      C1397   1.353       .  A
N1390      C1398   1.360       .  A
C1391      C1399   1.384       .  A
C1391      C1407   1.421       .  A
C1392      C1408   1.423       .  A
C1392      C1400   1.390       .  A
C1393      C1401   1.389       .  A
C1393      C1410   1.423       .  A
C1394      C1913   1.421   1_545  A
C1394      C1402   1.384       .  A
C1395      C1911   1.418   1_545  A
C1395      C1403   1.383       .  A
C1396      C1410   1.422       .  A
C1396      C1404   1.389       .  A
C1397      C1405   1.389       .  A
C1397      C1408   1.422       .  A
C1398      C1406   1.383       .  A
C1398      C1409   1.419       .  A
C1399      C1400   1.378       .  A
C1399      H1411   1.080       .  S
C1400      H1412   1.082       .  S
C1401      C1402   1.378       .  A
C1401      H1413   1.082       .  S
C1402      H1414   1.080       .  S
C1403      C1404   1.374       .  A
C1403      H1415   1.079       .  S
C1404      H1416   1.082       .  S
C1405      C1406   1.375       .  A
C1405      H1417   1.082       .  S
C1406      H1418   1.080       .  S
C1407      C1494   1.482       .  S
C1407      C1899   1.418       .  A
C1409      C1496   1.482       .  S
C1409      C1898   1.421       .  A
N1421      C1426   1.353       .  A
N1421      C1425   1.362       .  A
N1421      H1453   1.038       .  S
N1422      C1429   1.360       .  A
N1422      C1430   1.353       .  A
N1423      C1428   1.362       .  A
N1423      C1427   1.353       .  A
N1423      H1454   1.038       .  S
N1424      C1431   1.353       .  A
N1424      C1432   1.360       .  A
C1425      C1433   1.385       .  A
C1425      C1441   1.421       .  A
C1426      C1434   1.391       .  A
C1427      C1435   1.391       .  A
C1427      C1444   1.425       .  A
C1428      C1947   1.421   1_545  A
C1428      C1436   1.385       .  A
C1429      C1945   1.419       .  A
C1429      C1437   1.383       .  A
C1430      C1438   1.390       .  A
C1431      C1439   1.390       .  A
C1431      C1442   1.424       .  A
C1432      C1440   1.384       .  A
C1432      C1443   1.419       .  A
C1433      C1434   1.377       .  A
C1433      H1445   1.082       .  S
C1434      H1446   1.082       .  S
C1435      C1436   1.378       .  A
C1435      H1447   1.082       .  S
C1436      H1448   1.083       .  S
C1437      C1438   1.375       .  A
C1437      H1449   1.082       .  S
C1438      H1450   1.082       .  S
C1439      C1440   1.375       .  A
C1439      H1451   1.082       .  S
C1440      H1452   1.082       .  S
C1441      C1489   1.481       .  S
C1441      C1933   1.419       .  A
C1443      C1491   1.480       .  S
C1443      C1932   1.421       .  A
N1455      C1460   1.362       .  A
N1455      C1459   1.354       .  A
N1455      H1487   1.038       .  S
N1456      C1463   1.353       .  A
N1456      C1464   1.360       .  A
N1457      C1462   1.353       .  A
N1457      C1461   1.362       .  A
N1457      H1488   1.038       .  S
N1458      C1465   1.360       .  A
N1458      C1466   1.353       .  A
C1459      C1467   1.390       .  A
C1459      C1475   1.425       .  A
C1460      C1476   1.422       .  A
C1460      C1468   1.385       .  A
C1461      C1469   1.385       .  A
C1461      C1982   1.421   1_545  A
C1462      C1477   1.424       .  A
C1462      C1470   1.391       .  A
C1463      C1475   1.424       .  A
C1463      C1471   1.390       .  A
C1464      C1478   1.419       .  A
C1464      C1472   1.383       .  A
C1465      C1473   1.383       .  A
C1465      C1980   1.419   1_545  A
C1466      C1474   1.390       .  A
C1466      C1477   1.424       .  A
C1467      C1468   1.378       .  A
C1467      H1479   1.082       .  S
C1468      H1480   1.082       .  S
C1469      C1470   1.377       .  A
C1469      H1481   1.082       .  S
C1470      H1482   1.082       .  S
C1471      C1472   1.374       .  A
C1471      H1483   1.082       .  S
C1472      H1484   1.082       .  S
C1473      C1474   1.374       .  A
C1473      H1485   1.082       .  S
C1474      H1486   1.082       .  S
C1476      C1490   1.481       .  S
C1476      C1969   1.419       .  A
C1478      C1492   1.480       .  S
C1478      C1965   1.421       .  A
C1489      C1490   1.226       .  T
C1491      C1492   1.225       .  T
C1497      C1498   1.187       .  T
C1499      C1500   1.188       .  T
C1501      C1502   1.207       .  T
C1503      C1504   1.206       .  T
O1513      C1529   1.270   1_655  A
O1513     Zn1519   1.976       .  S
C1514      O1530   1.274   1_455  A
C1514      C1627   1.486       .  S
O1515      C1780   1.271       .  A
O1515     Cd1522   2.064       .  S
O1516      C1534   1.269       .  A
O1516     Cd1525   2.028       .  S
O1517      C1783   1.272       .  A
O1517     Cd1521   2.068       .  S
O1518     Cd1521   2.026       .  S
Zn1519     O1530   2.028       .  S
Zn1519     O1532   2.026       .  S
Zn1519     O1524   1.940       .  S
O1520      C1531   1.272       .  A
O1520     Cd1525   2.072       .  S
Cd1521     O1523   2.068       .  S
Cd1522     O1526   2.069       .  S
Cd1522     O1535   2.027       .  S
Cd1522     O1776   1.993   1_554  S
O1523      C1785   1.273       .  A
O1524     Cd1774   1.993       .  S
Cd1525     O1527   2.069       .  S
C1528      O1767   1.271       .  A
C1528      O1532   1.273       .  A
C1528      C1758   1.436       .  S
C1529      C1762   1.405       .  S
C1531      O1769   1.272   1_554  A
C1531      C1759   1.436       .  S
C1533      O1775   1.273   1_554  A
C1534      C1763   1.403       .  S
O1536      C1552   1.274       .  A
O1536     Zn1542   2.026       .  S
C1537      O1553   1.270       .  A
C1537      C1761   1.405       .  S
O1538      C1551   1.271       .  A
O1538     Cd1545   2.067       .  S
O1539      C1557   1.274   1_655  A
O1539     Cd1548   2.070       .  S
O1540      C1554   1.272       .  A
O1540     Cd1544   2.069       .  S
O1541     Cd1544   2.067       .  S
Zn1542     O1553   1.975       .  S
Zn1542     O1555   2.021       .  S
Zn1542     O1547   1.939       .  S
O1543      C1554   1.272       .  A
O1543     Cd1548   2.072       .  S
Cd1544     O1546   2.028       .  S
Cd1545     O1549   2.029       .  S
Cd1545     O1558   2.072       .  S
Cd1545     O1547   1.995       .  S
O1546      C1556   1.269       .  A
Cd1548     O1550   2.028       .  S
C1551      O1555   1.272       .  A
C1551      C1755   1.435       .  S
C1552      C1660   1.485       .  S
C1554      C1753   1.436       .  S
C1556      C1764   1.403       .  S
O1559      C1575   1.274       .  A
O1559     Zn1565   2.025       .  S
C1560      O1576   1.269       .  A
C1560      O1573   1.269       .  A
C1560      C1752   1.405       .  S
O1561      C1826   1.271       .  A
O1561     Cd1568   2.064       .  S
O1562      C1832   1.273       .  A
O1562     Cd1571   2.067       .  S
O1563      C1577   1.272       .  A
O1563     Cd1567   2.071       .  S
O1564      C1827   1.273       .  A
O1564     Cd1567   2.065       .  S
Zn1565     O1576   1.974       .  S
Zn1565     O1578   2.024       .  S
Zn1565     O1570   1.939       .  S
O1566      C1829   1.272       .  A
O1566     Cd1571   2.070       .  S
Cd1567     O1569   2.026       .  S
Cd1567     O1822   1.991       .  S
Cd1568     O1572   2.028       .  S
Cd1568     O1581   2.068       .  S
Cd1568     O1822   1.993       .  S
O1569      C1579   1.269       .  A
O1570     Cd1819   1.991   1_554  S
O1570     Cd1820   1.993   1_554  S
O1570     Cd1571   1.993       .  S
Cd1571     O1573   2.028       .  S
O1572      C1579   1.269       .  A
C1574      O1813   1.271       .  A
C1574      O1578   1.272   1_556  A
C1574      C1757   1.436       .  S
C1575      O1816   1.273   1_554  A
C1575      C1694   1.484       .  S
C1577      O1818   1.272       .  A
C1577      C1760   1.436       .  S
C1579      C1749   1.403       .  S
C1580      O1814   1.273       .  A
C1580      O1581   1.273       .  A
C1580      C1948   1.483       .  S
O1582      C1598   1.273       .  A
O1582     Zn1588   2.021       .  S
C1583      O1599   1.269       .  A
C1583      O1596   1.269       .  A
C1583      C1750   1.403       .  S
O1584      C1597   1.271       .  A
O1584     Cd1591   2.069       .  S
O1585      C1603   1.273       .  A
O1585     Cd1594   2.067       .  S
O1586      C1600   1.272       .  A
O1586     Cd1590   2.071       .  S
O1587      C1598   1.273       .  A
O1587     Cd1590   2.066       .  S
Zn1588     O1599   1.968       .  S
Zn1588     O1601   2.020       .  S
Zn1588     O1593   1.938       .  S
O1589      C1600   1.272       .  A
O1589     Cd1594   2.069       .  S
Cd1590     O1592   2.030       .  S
Cd1590     O1593   1.991       .  S
Cd1591     O1595   2.031       .  S
Cd1591     O1604   2.070       .  S
Cd1591     O1593   1.994       .  S
O1592      C1602   1.269       .  A
O1593     Cd1594   1.994       .  S
Cd1594     O1596   2.027       .  S
O1595      C1602   1.270       .  A
C1597      O1601   1.271       .  A
C1597      C1754   1.436       .  S
C1598      C1727   1.484       .  S
C1600      C1756   1.435       .  S
C1602      C1751   1.405       .  S
C1603      O1604   1.274       .  A
C1603      C1729   1.483       .  S
N1605      C1610   1.361   1_455  A
N1605      C1609   1.353   1_455  A
N1605      H1637   1.039       .  S
N1606      C1613   1.352       .  A
N1606      C1614   1.359       .  A
N1607      C1612   1.353   1_455  A
N1607      C1611   1.362   1_455  A
N1607      H1638   1.040       .  S
N1608      C1615   1.360       .  A
N1608      C1616   1.353       .  A
C1609      C1617   1.390       .  A
C1609      C1625   1.422       .  A
C1610      C1626   1.421   1_665  A
C1610      C1618   1.384       .  A
C1611      C1619   1.384       .  A
C1612      C1879   1.424   1_655  A
C1612      C1620   1.390       .  A
C1613      C1877   1.421   1_455  A
C1613      C1621   1.389       .  A
C1614      C1628   1.418       .  A
C1614      C1622   1.383       .  A
C1615      C1623   1.383       .  A
C1616      C1624   1.389       .  A
C1616      C1627   1.422       .  A
C1617      C1618   1.378       .  A
C1617      H1629   1.082       .  S
C1618      H1630   1.080       .  S
C1619      C1620   1.378       .  A
C1619      H1631   1.080       .  S
C1620      H1632   1.082       .  S
C1621      C1622   1.374       .  A
C1621      H1633   1.082       .  S
C1622      H1634   1.079       .  S
C1623      C1624   1.375       .  A
C1623      H1635   1.080       .  S
C1624      H1636   1.082       .  S
C1625      C1865   1.421   1_655  A
C1626      C1745   1.482   1_545  S
C1627      C1864   1.424   1_455  A
C1628      C1747   1.482       .  S
N1639      C1644   1.353       .  A
N1639      C1643   1.362       .  A
N1639      H1671   1.039       .  S
N1640      C1647   1.359       .  A
N1640      C1648   1.353       .  A
N1641      C1646   1.362       .  A
N1641      C1645   1.353       .  A
N1641      H1672   1.039       .  S
N1642      C1649   1.353       .  A
N1642      C1650   1.360       .  A
C1643      C1651   1.384       .  A
C1643      C1659   1.421       .  A
C1644      C1660   1.423       .  A
C1644      C1652   1.390       .  A
C1645      C1653   1.389       .  A
C1645      C1662   1.423       .  A
C1646      C1654   1.384       .  A
C1647      C1655   1.383       .  A
C1648      C1662   1.422       .  A
C1648      C1656   1.389       .  A
C1649      C1657   1.389       .  A
C1649      C1660   1.422       .  A
C1650      C1658   1.383       .  A
C1650      C1661   1.419       .  A
C1651      C1652   1.378       .  A
C1651      H1663   1.080       .  S
C1652      H1664   1.082       .  S
C1653      C1654   1.378       .  A
C1653      H1665   1.082       .  S
C1654      H1666   1.080       .  S
C1655      C1656   1.374       .  A
C1655      H1667   1.080       .  S
C1656      H1668   1.082       .  S
C1657      C1658   1.375       .  A
C1657      H1669   1.082       .  S
C1658      H1670   1.080       .  S
C1659      C1746   1.482       .  S
C1661      C1748   1.482       .  S
N1673      C1678   1.353       .  A
N1673      C1677   1.362       .  A
N1673      H1705   1.038       .  S
N1674      C1681   1.360       .  A
N1674      C1682   1.353       .  A
N1675      C1680   1.362       .  A
N1675      C1679   1.353       .  A
N1675      H1706   1.038       .  S
N1676      C1683   1.353       .  A
N1676      C1684   1.360       .  A
C1677      C1685   1.385       .  A
C1677      C1693   1.421   1_565  A
C1678      C1946   1.425       .  A
C1678      C1686   1.391       .  A
C1679      C1687   1.391       .  A
C1679      C1696   1.425       .  A
C1680      C1688   1.385       .  A
C1681      C1689   1.383       .  A
C1682      C1948   1.424       .  A
C1682      C1690   1.390       .  A
C1683      C1691   1.390       .  A
C1683      C1694   1.424       .  A
C1684      C1692   1.384       .  A
C1684      C1695   1.419       .  A
C1685      C1686   1.377       .  A
C1685      H1697   1.082       .  S
C1686      H1698   1.082       .  S
C1687      C1688   1.378       .  A
C1687      H1699   1.082       .  S
C1688      H1700   1.083       .  S
C1689      C1690   1.375       .  A
C1689      H1701   1.082       .  S
C1690      H1702   1.082       .  S
C1691      C1692   1.375       .  A
C1691      H1703   1.082       .  S
C1692      H1704   1.082       .  S
C1693      C1741   1.481   1_545  S
C1694      C1930   1.425   1_554  A
C1695      C1743   1.480   1_565  S
C1696      C1832   1.483       .  S
C1696      C1934   1.424   1_554  A
N1707      C1712   1.362       .  A
N1707      C1711   1.354       .  A
N1707      H1739   1.038       .  S
N1708      C1715   1.353       .  A
N1708      C1716   1.360       .  A
N1709      C1714   1.353       .  A
N1709      C1713   1.362       .  A
N1709      H1740   1.038       .  S
N1710      C1717   1.360       .  A
N1710      C1718   1.353       .  A
C1711      C1719   1.390       .  A
C1711      C1727   1.425       .  A
C1712      C1728   1.422       .  A
C1712      C1720   1.385       .  A
C1713      C1721   1.385       .  A
C1714      C1729   1.424       .  A
C1714      C1722   1.391       .  A
C1715      C1727   1.424       .  A
C1715      C1723   1.390       .  A
C1716      C1730   1.419       .  A
C1716      C1724   1.383       .  A
C1717      C1725   1.383       .  A
C1718      C1726   1.390       .  A
C1718      C1729   1.424       .  A
C1719      C1720   1.378       .  A
C1719      H1731   1.082       .  S
C1720      H1732   1.082       .  S
C1721      C1722   1.377       .  A
C1721      H1733   1.082       .  S
C1722      H1734   1.082       .  S
C1723      C1724   1.374       .  A
C1723      H1735   1.082       .  S
C1724      H1736   1.082       .  S
C1725      C1726   1.374       .  A
C1725      H1737   1.082       .  S
C1726      H1738   1.082       .  S
C1728      C1742   1.481       .  S
C1730      C1744   1.480   1_565  S
C1741      C1742   1.226       .  T
C1743      C1744   1.225       .  T
C1749      C1750   1.187       .  T
C1751      C1752   1.188       .  T
C1753      C1754   1.207       .  T
C1755      C1756   1.206       .  T
C1757      C2010   1.206       .  T
C1758      C2009   1.206       .  T
C1759      C2012   1.206       .  T
C1760      C2011   1.206       .  T
O1765      C1781   1.270   1_655  A
O1765     Zn1771   1.976       .  S
C1766      O1782   1.274   1_454  A
C1766      C1879   1.486       .  S
O1767     Cd1774   2.064       .  S
O1768      C1786   1.269       .  A
O1768     Cd1777   2.028       .  S
O1769     Cd1773   2.068       .  S
O1770     Cd1773   2.026       .  S
Zn1771     O1782   2.028       .  S
Zn1771     O1784   2.026       .  S
Zn1771     O1776   1.940       .  S
O1772      C1783   1.272       .  A
O1772     Cd1777   2.072       .  S
Cd1773     O1775   2.068       .  S
Cd1774     O1778   2.069       .  S
Cd1774     O1787   2.027       .  S
Cd1777     O1779   2.069       .  S
C1780      O1784   1.273   1_554  A
C1780      C2010   1.436   1_554  S
C1781      C2014   1.405       .  S
C1783      C2011   1.436       .  S
C1786      C2015   1.403       .  S
O1788      C1804   1.274       .  A
O1788     Zn1794   2.026       .  S
C1789      O1805   1.270       .  A
C1789      C2013   1.405       .  S
O1790      C1803   1.271       .  A
O1790     Cd1797   2.067       .  S
O1791      C1809   1.274   1_655  A
O1791     Cd1800   2.070       .  S
O1792      C1806   1.272       .  A
O1792     Cd1796   2.069       .  S
O1793     Cd1796   2.067       .  S
Zn1794     O1805   1.975       .  S
Zn1794     O1807   2.021       .  S
Zn1794     O1799   1.939       .  S
O1795      C1806   1.272       .  A
O1795     Cd1800   2.072       .  S
Cd1796     O1798   2.028       .  S
Cd1797     O1801   2.029       .  S
Cd1797     O1810   2.072       .  S
Cd1797     O1799   1.995       .  S
O1798      C1808   1.269       .  A
Cd1800     O1802   2.028       .  S
C1803      O1807   1.272       .  A
C1803      C2007   1.435       .  S
C1804      C1912   1.485       .  S
C1806      C2005   1.436       .  S
C1808      C2016   1.403       .  S
O1811      C1827   1.274       .  A
O1811     Zn1817   2.025       .  S
C1812      O1828   1.269       .  A
C1812      O1825   1.269       .  A
C1812      C2004   1.405       .  S
O1813     Cd1820   2.064       .  S
O1814     Cd1823   2.067       .  S
O1815      C1829   1.272   1_556  A
O1815     Cd1819   2.071       .  S
O1816     Cd1819   2.065       .  S
Zn1817     O1828   1.974       .  S
Zn1817     O1830   2.024       .  S
Zn1817     O1822   1.939       .  S
O1818     Cd1823   2.070       .  S
Cd1819     O1821   2.026       .  S
Cd1820     O1824   2.028       .  S
Cd1820     O1833   2.068       .  S
O1821      C1831   1.269       .  A
O1822     Cd1823   1.993       .  S
Cd1823     O1825   2.028       .  S
O1824      C1831   1.269       .  A
C1826      O1830   1.272       .  A
C1826      C2009   1.436       .  S
C1827      C1946   1.484       .  S
C1829      C2012   1.436       .  S
C1831      C2001   1.403       .  S
C1832      O1833   1.273   1_554  A
O1834      C1850   1.273       .  A
O1834     Zn1840   2.021       .  S
C1835      O1851   1.269       .  A
C1835      O1848   1.269       .  A
C1835      C2002   1.403       .  S
O1836      C1849   1.271       .  A
O1836     Cd1843   2.069       .  S
O1837      C1855   1.273       .  A
O1837     Cd1846   2.067       .  S
O1838      C1852   1.272       .  A
O1838     Cd1842   2.071       .  S
O1839      C1850   1.273       .  A
O1839     Cd1842   2.066       .  S
Zn1840     O1851   1.968       .  S
Zn1840     O1853   2.020       .  S
Zn1840     O1845   1.938       .  S
O1841      C1852   1.272       .  A
O1841     Cd1846   2.069       .  S
Cd1842     O1844   2.030       .  S
Cd1842     O1845   1.991       .  S
Cd1843     O1847   2.031       .  S
Cd1843     O1856   2.070       .  S
Cd1843     O1845   1.994       .  S
O1844      C1854   1.269       .  A
O1845     Cd1846   1.994       .  S
Cd1846     O1848   2.027       .  S
O1847      C1854   1.270       .  A
C1849      O1853   1.271       .  A
C1849      C2006   1.436       .  S
C1850      C1979   1.484       .  S
C1852      C2008   1.435       .  S
C1854      C2003   1.405       .  S
C1855      O1856   1.274       .  A
C1855      C1981   1.483       .  S
N1857      C1862   1.361   1_455  A
N1857      C1861   1.353   1_455  A
N1857      H1889   1.039       .  S
N1858      C1865   1.352       .  A
N1858      C1866   1.359       .  A
N1859      C1864   1.353   1_455  A
N1859      C1863   1.362   1_455  A
N1859      H1890   1.040       .  S
N1860      C1867   1.360       .  A
N1860      C1868   1.353       .  A
C1861      C1869   1.390       .  A
C1861      C1877   1.422   1_556  A
C1862      C1878   1.421   1_665  A
C1862      C1870   1.384       .  A
C1863      C1871   1.384       .  A
C1864      C1872   1.390       .  A
C1865      C1873   1.389       .  A
C1866      C1880   1.418       .  A
C1866      C1874   1.383       .  A
C1867      C1875   1.383       .  A
C1868      C1876   1.389       .  A
C1868      C1879   1.422   1_556  A
C1869      C1870   1.378       .  A
C1869      H1881   1.082       .  S
C1870      H1882   1.080       .  S
C1871      C1872   1.378       .  A
C1871      H1883   1.080       .  S
C1872      H1884   1.082       .  S
C1873      C1874   1.374       .  A
C1873      H1885   1.082       .  S
C1874      H1886   1.079       .  S
C1875      C1876   1.375       .  A
C1875      H1887   1.080       .  S
C1876      H1888   1.082       .  S
C1878      C1997   1.482   1_545  S
C1880      C1999   1.482       .  S
N1891      C1896   1.353       .  A
N1891      C1895   1.362       .  A
N1891      H1923   1.039       .  S
N1892      C1899   1.359       .  A
N1892      C1900   1.353       .  A
N1893      C1898   1.362       .  A
N1893      C1897   1.353       .  A
N1893      H1924   1.039       .  S
N1894      C1901   1.353       .  A
N1894      C1902   1.360       .  A
C1895      C1903   1.384       .  A
C1895      C1911   1.421       .  A
C1896      C1912   1.423       .  A
C1896      C1904   1.390       .  A
C1897      C1905   1.389       .  A
C1897      C1914   1.423       .  A
C1898      C1906   1.384       .  A
C1899      C1907   1.383       .  A
C1900      C1914   1.422       .  A
C1900      C1908   1.389       .  A
C1901      C1909   1.389       .  A
C1901      C1912   1.422       .  A
C1902      C1910   1.383       .  A
C1902      C1913   1.419       .  A
C1903      C1904   1.378       .  A
C1903      H1915   1.080       .  S
C1904      H1916   1.082       .  S
C1905      C1906   1.378       .  A
C1905      H1917   1.082       .  S
C1906      H1918   1.080       .  S
C1907      C1908   1.374       .  A
C1907      H1919   1.080       .  S
C1908      H1920   1.082       .  S
C1909      C1910   1.375       .  A
C1909      H1921   1.082       .  S
C1910      H1922   1.080       .  S
C1911      C1998   1.482       .  S
C1913      C2000   1.482       .  S
N1925      C1930   1.353       .  A
N1925      C1929   1.362       .  A
N1925      H1957   1.038       .  S
N1926      C1933   1.360       .  A
N1926      C1934   1.353       .  A
N1927      C1932   1.362       .  A
N1927      C1931   1.353       .  A
N1927      H1958   1.038       .  S
N1928      C1935   1.353       .  A
N1928      C1936   1.360       .  A
C1929      C1937   1.385       .  A
C1929      C1945   1.421   1_565  A
C1930      C1938   1.391       .  A
C1931      C1939   1.391       .  A
C1931      C1948   1.425       .  A
C1932      C1940   1.385       .  A
C1933      C1941   1.383       .  A
C1934      C1942   1.390       .  A
C1935      C1943   1.390       .  A
C1935      C1946   1.424       .  A
C1936      C1944   1.384       .  A
C1936      C1947   1.419       .  A
C1937      C1938   1.377       .  A
C1937      H1949   1.082       .  S
C1938      H1950   1.082       .  S
C1939      C1940   1.378       .  A
C1939      H1951   1.082       .  S
C1940      H1952   1.083       .  S
C1941      C1942   1.375       .  A
C1941      H1953   1.082       .  S
C1942      H1954   1.082       .  S
C1943      C1944   1.375       .  A
C1943      H1955   1.082       .  S
C1944      H1956   1.082       .  S
C1945      C1993   1.481   1_545  S
C1947      C1995   1.480   1_565  S
N1959      C1964   1.362       .  A
N1959      C1963   1.354       .  A
N1959      H1991   1.038       .  S
N1960      C1967   1.353       .  A
N1960      C1968   1.360       .  A
N1961      C1966   1.353       .  A
N1961      C1965   1.362       .  A
N1961      H1992   1.038       .  S
N1962      C1969   1.360       .  A
N1962      C1970   1.353       .  A
C1963      C1971   1.390       .  A
C1963      C1979   1.425       .  A
C1964      C1980   1.422       .  A
C1964      C1972   1.385       .  A
C1965      C1973   1.385       .  A
C1966      C1981   1.424       .  A
C1966      C1974   1.391       .  A
C1967      C1979   1.424       .  A
C1967      C1975   1.390       .  A
C1968      C1982   1.419       .  A
C1968      C1976   1.383       .  A
C1969      C1977   1.383       .  A
C1970      C1978   1.390       .  A
C1970      C1981   1.424       .  A
C1971      C1972   1.378       .  A
C1971      H1983   1.082       .  S
C1972      H1984   1.082       .  S
C1973      C1974   1.377       .  A
C1973      H1985   1.082       .  S
C1974      H1986   1.082       .  S
C1975      C1976   1.374       .  A
C1975      H1987   1.082       .  S
C1976      H1988   1.082       .  S
C1977      C1978   1.374       .  A
C1977      H1989   1.082       .  S
C1978      H1990   1.082       .  S
C1980      C1994   1.481       .  S
C1982      C1996   1.480   1_565  S
C1993      C1994   1.226       .  T
C1995      C1996   1.225       .  T
C2001      C2002   1.187       .  T
C2003      C2004   1.188       .  T
C2005      C2006   1.207       .  T
C2007      C2008   1.206       .  T
