geometry optimzed in LAMMPS
_audit_creation_date              2020-11-30 
_audit_creation_method            'lammps2cif' 
_symmetry_space_group_name_H-M    'P1' 
_symmetry_Int_Tables_number       1 
_symmetry_cell_setting            triclinic 
loop_ 
_symmetry_equiv_pos_as_xyz 
  x,y,z 
_cell_length_a                    29.64041508 
_cell_length_b                    29.573406007426357 
_cell_length_c                    29.57672062708946 
_cell_angle_alpha                 90.06776878953994 
_cell_angle_beta                  89.97509222682717 
_cell_angle_gamma                 90.02419786956612 
loop_ 
_atom_site_label 
_atom_site_type_symbol 
_atom_site_fract_x 
_atom_site_fract_y 
_atom_site_fract_z 
_atom_site_charge 
N1          N  0.00350294  0.50050836  0.43246387    -0.36700
N2          N  0.00528283  0.42871941  0.49959864    -0.57300
N3          N  0.00607632  0.49614369  0.57122693    -0.36700
N4          N  0.99731924  0.56779759  0.50393638    -0.57300
C5          C  0.99606597  0.46406563  0.40581261     0.26900
C6          C  0.99256929  0.53757756  0.40807830     0.26900
C7          C  0.99764882  0.45814126  0.59528010     0.26900
C8          C  0.99464327  0.53168578  0.59771222     0.26900
C9          C  0.01342372  0.40391026  0.46208887     0.35500
C10         C  0.01373896  0.40145080  0.53522696     0.35500
C11         C  0.00308031  0.59562898  0.46811950     0.35500
C12         C  0.00422644  0.59329676  0.54127847     0.35500
C13         C  0.98038505  0.47819125  0.36395137    -0.22000
C14         C  0.97830960  0.52459394  0.36534781    -0.22000
C15         C  0.98108112  0.46975314  0.63760127    -0.22000
C16         C  0.97930186  0.51614544  0.63916497    -0.22000
C17         C  0.02714534  0.36070238  0.47395874    -0.23100
C18         C  0.02726558  0.35912298  0.52033228    -0.23000
C19         C  0.01309140  0.63899257  0.48277725    -0.23100
C20         C  0.01390616  0.63750538  0.52909810    -0.23000
C21         C  0.00532627  0.41861239  0.41736752    -0.18400
C22         C  0.99776036  0.58290073  0.42236360    -0.18400
C23         C  0.99950080  0.57784092  0.58626147    -0.18400
C24         C  0.00625719  0.41332058  0.58087493    -0.18400
H25         H  0.97172167  0.45729395  0.33516878     0.14500
H26         H  0.96776410  0.54632347  0.33789353     0.14500
H27         H  0.97120292  0.44716032  0.66461511     0.14500
H28         H  0.96778561  0.53616340  0.66756610     0.14500
H29         H  0.03563996  0.33302039  0.45155256     0.12800
H30         H  0.03588885  0.33001677  0.54072130     0.12800
H31         H  0.01930956  0.66862849  0.46226787     0.12800
H32         H  0.02087946  0.66581576  0.55122842     0.12800
H33         H  0.01999089  0.50041522  0.46341993     0.26100
H34         H  0.02307437  0.49793741  0.54054541     0.26100
O35         O  0.99811004  0.12768055  0.07350426    -0.86600
O36         O  0.00080262  0.87147389  0.07672715    -0.86800
O37         O  0.92744830  0.99929736  0.13140059    -0.88400
O38         O  0.07397889  0.99894884  0.12750457    -0.87200
O39         O  0.12799532  0.99707650  0.07194255    -0.86800
O40         O  0.87205647  0.99871947  0.07730532    -0.88100
O41         O  0.00079268  0.92701984  0.13086205    -0.86600
O42         O  0.99883962  0.07352896  0.12890870    -0.86200
Zr43       Zr  0.99973314  0.99968004  0.09229080     2.84300
O44         O  0.04463726  0.95346937  0.04651560    -1.08200
O45         O  0.95318879  0.04508777  0.04745529    -1.08900
C46         C  0.99820747  0.11503443  0.11530082     1.06500
C47         C  0.00131013  0.88516595  0.11830852     1.06500
C48         C  0.88571425  0.99869058  0.11880573     1.09400
C49         C  0.11535578  0.99776465  0.11376913     1.07200
H50         H  0.93448028  0.93483239  0.06770377     0.32800
O51         O  0.95293246  0.95358820  0.04829939    -1.29100
H52         H  0.06388763  0.06396139  0.06431824     0.32500
O53         O  0.04480603  0.04499566  0.04581727    -1.30800
O54         O  0.99478643  0.86967284  0.92920516    -0.86600
O55         O  0.99602603  0.12648802  0.92671357    -0.88100
O56         O  0.86890204  0.92598563  0.00301929    -0.86700
O57         O  0.12585043  0.92491174  0.99795162    -0.86700
O58         O  0.12615724  0.07263240  0.99888179    -0.86400
O59         O  0.87074158  0.07331364  0.00439661    -0.86200
O60         O  0.92226091  0.99627948  0.87461139    -0.86600
O61         O  0.06955720  0.99707078  0.87080162    -0.86100
O62         O  0.86813992  0.99872769  0.93001303    -0.87100
O63         O  0.12484353  0.99841055  0.92497718    -0.86300
O64         O  0.92377428  0.87135587  0.00414885    -0.86700
O65         O  0.92554404  0.12799781  0.00297314    -0.86400
O66         O  0.07117293  0.12718071  0.99975409    -0.86100
O67         O  0.07103875  0.87012058  0.99966767    -0.86500
O68         O  0.99801432  0.92379653  0.87357388    -0.86800
O69         O  0.99681514  0.07105569  0.87233038    -0.88100
Zr70       Zr  0.99776607  0.90760097  0.00238265     2.83100
Zr71       Zr  0.99814870  0.08978165  0.00039862     2.83500
Zr72       Zr  0.90701153  0.99912308  0.00273948     2.84100
Zr73       Zr  0.08919529  0.99876514  0.99935060     2.83400
Zr74       Zr  0.99676031  0.99781776  0.90990192     2.84200
O75         O  0.04329069  0.04429630  0.95391289    -1.08700
O76         O  0.95166944  0.95273925  0.95673583    -1.08200
C77         C  0.99651861  0.88241067  0.88745733     1.06500
C78         C  0.99625608  0.11282954  0.88519471     1.09100
C79         C  0.88210274  0.88431726  0.00370351     1.06700
C80         C  0.11264440  0.88322666  0.99805441     1.07000
C81         C  0.11278163  0.11427232  0.99939308     1.06600
C82         C  0.88394981  0.11501696  0.00427152     1.06200
C83         C  0.88075847  0.99714717  0.88817766     1.06600
C84         C  0.11136849  0.99732073  0.88341305     1.06100
H85         H  0.93249739  0.06296402  0.93694872     0.32800
O86         O  0.95167032  0.04417436  0.95559864    -1.29800
H87         H  0.06119677  0.93340273  0.93617434     0.32800
O88         O  0.04273812  0.95251687  0.95527349    -1.31200
N89         N  0.49873486  0.00148269  0.56974764    -0.36700
N90         N  0.42947581  0.99886875  0.49965774    -0.57300
N91         N  0.49889337  0.00525551  0.43062381    -0.36700
N92         N  0.56802042  0.00186539  0.50052059    -0.57300
C93         C  0.46205576  0.98930030  0.59411778     0.26900
C94         C  0.53554750  0.99052388  0.59449682     0.26900
C95         C  0.46242766  0.99555003  0.40488422     0.26900
C96         C  0.53592076  0.99650809  0.40536535     0.26900
C97         C  0.40336504  0.00596636  0.53651220     0.35500
C98         C  0.40349587  0.00830878  0.46325815     0.35500
C99         C  0.59426343  0.00832535  0.53733366     0.35500
C100        C  0.59421460  0.01081773  0.46422929     0.35500
C101        C  0.47571595  0.97068826  0.63490284    -0.22000
C102        C  0.52209322  0.97152215  0.63516634    -0.22000
C103        C  0.47644283  0.98064460  0.36265988    -0.22000
C104        C  0.52285701  0.98127702  0.36295644    -0.22000
C105        C  0.36072022  0.02003205  0.52344611    -0.23100
C106        C  0.36078597  0.02144480  0.47704721    -0.23000
C107        C  0.63722096  0.02154108  0.52439529    -0.23100
C108        C  0.63719224  0.02312872  0.47805395    -0.23000
C109        C  0.41662562  0.99692539  0.58156821    -0.18400
C110        C  0.58089019  0.99899552  0.58218494    -0.18400
C111        C  0.58105551  0.00424337  0.41880520    -0.18400
C112        C  0.41695969  0.00235593  0.41774299    -0.18400
H113        H  0.45447896  0.95784949  0.66175603     0.14500
H114        H  0.54346771  0.95941134  0.66222686     0.14500
H115        H  0.45544365  0.97062767  0.33443790     0.14500
H116        H  0.54449712  0.97186272  0.33500155     0.14500
H117        H  0.33238792  0.02817383  0.54505103     0.12800
H118        H  0.33253756  0.03085174  0.45588690     0.12800
H119        H  0.66580216  0.02866090  0.54601949     0.12800
H120        H  0.66578198  0.03165252  0.45693954     0.12800
H121        H  0.49849425  0.02060438  0.54026683     0.26100
H122        H  0.49849577  0.02169643  0.46169242     0.26100
N123        N  0.49874253  0.42935134  0.00543503    -0.36700
N124        N  0.56686605  0.49992142  0.00041911    -0.57300
N125        N  0.49593999  0.56800590  0.99853698    -0.36700
N126        N  0.42782349  0.49726038  0.99686708    -0.57300
C127        C  0.53633336  0.40421677  0.99869923     0.26900
C128        C  0.46283177  0.40272324  0.99583103     0.26900
C129        C  0.53238463  0.59335876  0.98757455     0.26900
C130        C  0.45882408  0.59197913  0.98697656     0.26900
C131        C  0.59359007  0.46446593  0.01106939     0.35500
C132        C  0.59200917  0.53749994  0.00690477     0.35500
C133        C  0.40223114  0.46037610  0.00520781     0.35500
C134        C  0.40077648  0.53352716  0.00319764     0.35500
C135        C  0.52414773  0.36098501  0.98525231    -0.22000
C136        C  0.47780658  0.36005980  0.98336130    -0.24100
C137        C  0.51824804  0.63393302  0.96890033    -0.22000
C138        C  0.47180779  0.63307769  0.96854651    -0.22000
C139        C  0.63586882  0.47954094  0.02419269    -0.23100
C140        C  0.63483349  0.52584415  0.02169682    -0.23000
C141        C  0.35870907  0.47326916  0.01664600    -0.23100
C142        C  0.35782582  0.51962755  0.01550635    -0.23000
C143        C  0.58124812  0.41858412  0.00632314    -0.18400
C144        C  0.41689307  0.41515915  0.00019915    -0.18400
C145        C  0.41361976  0.57881174  0.99505980    -0.18400
C146        C  0.57788367  0.58192664  0.99657885    -0.18400
H147        H  0.54633894  0.33294502  0.97760096     0.14500
H148        H  0.45747655  0.33113203  0.97398279     0.14500
H149        H  0.53921603  0.66146665  0.95709314     0.14500
H150        H  0.45006288  0.65979771  0.95632979     0.14500
H151        H  0.66454834  0.45928027  0.03425680     0.12800
H152        H  0.66260012  0.54831221  0.02949038     0.12800
H153        H  0.33049600  0.45156423  0.02495913     0.12800
H154        H  0.32877449  0.54062413  0.02261808     0.12800
H155        H  0.49752362  0.46117434  0.02026130     0.26100
H156        H  0.49624655  0.53854846  0.01765561     0.26100
C157        C  0.61275899  0.61808067  0.99495207    -0.03500
C158        C  0.61322689  0.65228532  0.02788073    -0.09200
C159        C  0.64788578  0.68441943  0.02845534    -0.16900
C160        C  0.68232998  0.68283617  0.99602913     0.25300
C161        C  0.68177432  0.64901619  0.96279645    -0.18500
C162        C  0.64714923  0.61679866  0.96223923    -0.07500
C163        C  0.71794107  0.71612286  0.99690046    -0.13900
C164        C  0.74689222  0.74485295  0.99835712    -0.13600
C165        C  0.78074488  0.77987655  0.00047987     0.25200
C166        C  0.76792798  0.82538874  0.00302526    -0.19000
C167        C  0.80072953  0.85945386  0.00457041    -0.07500
C168        C  0.84696069  0.84842864  0.00357003    -0.03600
C169        C  0.85940086  0.80248534  0.00154857    -0.08900
C170        C  0.82656096  0.76856104  0.99995831    -0.16500
H171        H  0.58720174  0.65354142  0.05356669     0.11600
H172        H  0.64796032  0.71036658  0.05434166     0.10900
H173        H  0.70818828  0.64740176  0.93751669     0.10800
H174        H  0.64740561  0.59048617  0.93673246     0.11400
H175        H  0.73254795  0.83456803  0.00360266     0.11400
H176        H  0.78983294  0.89436048  0.00627582     0.11400
H177        H  0.89456899  0.79262579  0.00076515     0.11500
H178        H  0.83694919  0.73348813  0.99810907     0.10400
C179        C  0.84867600  0.15066651  0.00569210    -0.03500
C180        C  0.86042757  0.19679675  0.00351848    -0.09200
C181        C  0.82709378  0.23025341  0.00516410    -0.16900
C182        C  0.78157739  0.21821846  0.00902200     0.25300
C183        C  0.76952812  0.17250560  0.01105421    -0.18500
C184        C  0.80275521  0.13897561  0.00937006    -0.07500
C185        C  0.74724050  0.25274321  0.01039775    -0.13900
C186        C  0.71860789  0.28178652  0.01076795    -0.13600
C187        C  0.68452215  0.31659510  0.01009660     0.25200
C188        C  0.68234723  0.34690364  0.97377791    -0.19000
C189        C  0.64899286  0.38036903  0.97271881    -0.07500
C190        C  0.61737039  0.38373694  0.00793559    -0.03600
C191        C  0.61973613  0.35340781  0.04433856    -0.08900
C192        C  0.65321254  0.32005018  0.04545093    -0.16500
H193        H  0.89535412  0.20713301  0.00051922     0.11600
H194        H  0.83683412  0.26552416  0.00339636     0.10900
H195        H  0.73441121  0.16274214  0.01391466     0.10800
H196        H  0.79239872  0.10390360  0.01108250     0.11400
H197        H  0.70631749  0.34454621  0.94621019     0.11400
H198        H  0.64753519  0.40341389  0.94432175     0.11400
H199        H  0.59559558  0.35559181  0.07175234     0.11500
H200        H  0.65453677  0.29684397  0.07373147     0.10400
C201        C  0.37801528  0.61420215  0.99394233    -0.03500
C202        C  0.34408673  0.61315118  0.96079704    -0.09200
C203        C  0.31090763  0.64676631  0.95972381    -0.16900
C204        C  0.31141742  0.68175459  0.99168811     0.25300
C205        C  0.34508458  0.68285779  0.02487145    -0.18500
C206        C  0.37823664  0.64926659  0.02599842    -0.07500
C207        C  0.27747247  0.71653912  0.99056287    -0.13900
C208        C  0.24911954  0.74577123  0.99048393    -0.13600
C209        C  0.21502653  0.78041073  0.99151434     0.25200
C210        C  0.22699720  0.82542522  0.99987327    -0.19000
C211        C  0.19375609  0.85890868  0.00187401    -0.07500
C212        C  0.14795842  0.84775650  0.99575965    -0.03600
C213        C  0.13634388  0.80237683  0.98713385    -0.08900
C214        C  0.16968253  0.76900774  0.98497276    -0.16500
H215        H  0.34348257  0.58640421  0.93575804     0.11600
H216        H  0.28497966  0.64555052  0.93394151     0.10900
H217        H  0.34574164  0.70971284  0.04981314     0.10800
H218        H  0.40409324  0.65052721  0.05183630     0.11400
H219        H  0.26200402  0.83462379  0.00506485     0.11400
H220        H  0.20392966  0.89343833  0.00860915     0.11400
H221        H  0.10151952  0.79261200  0.98190096     0.11500
H222        H  0.16005904  0.73426318  0.97842260     0.10400
C223        C  0.14769215  0.15012944  0.99997907    -0.03500
C224        C  0.19309021  0.13972788  0.99080395    -0.09200
C225        C  0.22589586  0.17365178  0.99130481    -0.16900
C226        C  0.21390024  0.21833046  0.00113695     0.25300
C227        C  0.16890704  0.22908114  0.01055552    -0.18500
C228        C  0.13596803  0.19524199  0.00992058    -0.07500
C229        C  0.24791938  0.25298421  0.00111583    -0.13900
C230        C  0.27749741  0.28092518  0.00042860    -0.13600
C231        C  0.31339192  0.31361863  0.99942406     0.25200
C232        C  0.31511244  0.34593175  0.96491109    -0.19000
C233        C  0.34936972  0.37842139  0.96460623    -0.07500
C234        C  0.38209610  0.37897464  0.99896330    -0.03600
C235        C  0.38072081  0.34591608  0.03296922    -0.08900
C236        C  0.34653017  0.31334999  0.03315058    -0.16500
H237        H  0.20325950  0.10545616  0.98289637     0.11600
H238        H  0.26065180  0.16504128  0.98390481     0.10900
H239        H  0.15927020  0.26357706  0.01828410     0.10800
H240        H  0.10139628  0.20440536  0.01745539     0.11400
H241        H  0.28977157  0.34626321  0.93852177     0.11400
H242        H  0.35007994  0.40355213  0.93800288     0.11400
H243        H  0.40571011  0.34584367  0.05967483     0.11500
H244        H  0.34562244  0.28831973  0.05985482     0.10400
C245        C  0.61609940  0.99660180  0.61793036    -0.03500
C246        C  0.65002226  0.96343771  0.61620509    -0.09200
C247        C  0.68278017  0.96117217  0.65022366    -0.16900
C248        C  0.68182103  0.99195474  0.68628608     0.25300
C249        C  0.64806356  0.02500993  0.68808416    -0.18500
C250        C  0.61537663  0.02733203  0.65412551    -0.07500
C251        C  0.71554412  0.99018574  0.72133307    -0.13900
C252        C  0.74362095  0.99044633  0.75087983    -0.13600
C253        C  0.77774795  0.99214032  0.78555198     0.25200
C254        C  0.76562953  0.99645846  0.83112690    -0.19000
C255        C  0.79899367  0.99837436  0.86460549    -0.07500
C256        C  0.84504009  0.99601520  0.85289672    -0.03600
C257        C  0.85671451  0.99201447  0.80688941    -0.08900
C258        C  0.82334005  0.99005909  0.77358166    -0.16500
H259        H  0.65096728  0.93934032  0.58861058     0.11600
H260        H  0.70876741  0.93548020  0.64842152     0.10900
H261        H  0.64704133  0.04903801  0.71574253     0.10800
H262        H  0.58948870  0.05310391  0.65597406     0.11400
H263        H  0.73041301  0.99831345  0.84079238     0.11400
H264        H  0.78868295  0.00159877  0.89958904     0.11400
H265        H  0.89169253  0.99014987  0.79649775     0.11500
H266        H  0.83314151  0.98689615  0.73842415     0.10400
C267        C  0.14680442  0.99583680  0.84774316    -0.03500
C268        C  0.13528908  0.99390784  0.80155770    -0.09200
C269        C  0.16896125  0.99244535  0.76831314    -0.16900
C270        C  0.21457996  0.99282576  0.78064844     0.25300
C271        C  0.22636488  0.99445621  0.82640904    -0.18500
C272        C  0.19284849  0.99591213  0.85967202    -0.07500
C273        C  0.24935800  0.99187036  0.74648977    -0.13900
C274        C  0.27879177  0.99156195  0.71822490    -0.13600
C275        C  0.31396397  0.99200965  0.68447948     0.25200
C276        C  0.34965607  0.02288095  0.68795778    -0.19000
C277        C  0.38310814  0.02429325  0.65460659    -0.07500
C278        C  0.38131093  0.99476208  0.61739136    -0.03600
C279        C  0.34584189  0.96332667  0.61446172    -0.08900
C280        C  0.31229174  0.96207006  0.64776383    -0.16500
H281        H  0.10030404  0.99356801  0.79104361     0.11600
H282        H  0.15940313  0.99111432  0.73298335     0.10900
H283        H  0.26152359  0.99470449  0.83642680     0.10800
H284        H  0.20313104  0.99716254  0.89477412     0.11400
H285        H  0.35141864  0.04612345  0.71624300     0.11400
H286        H  0.41024328  0.04866144  0.65755671     0.11400
H287        H  0.34407607  0.93999889  0.58625803     0.11500
H288        H  0.28494527  0.93793848  0.64475738     0.10400
C289        C  0.15091624  0.99766007  0.14888369    -0.03500
C290        C  0.14075402  0.01118775  0.19338167    -0.09200
C291        C  0.17424990  0.01166623  0.22658625    -0.16900
C292        C  0.21828893  0.99842305  0.21591067     0.25300
C293        C  0.22872782  0.98468266  0.17181632    -0.18500
C294        C  0.19531442  0.98441302  0.13842844    -0.07500
C295        C  0.25275107  0.99913552  0.25019177    -0.13900
C296        C  0.28146512  0.99984658  0.27907151    -0.13600
C297        C  0.31553432  0.00053814  0.31378386     0.25200
C298        C  0.31534000  0.96762474  0.34778453    -0.19000
C299        C  0.34825602  0.96829701  0.38164764    -0.07500
C300        C  0.38171640  0.00194720  0.38188525    -0.03600
C301        C  0.38185076  0.03481830  0.34760533    -0.08900
C302        C  0.34889044  0.03411437  0.31373887    -0.16500
H303        H  0.10700505  0.02189129  0.20247553     0.11600
H304        H  0.16580241  0.02245690  0.26057029     0.10900
H305        H  0.26271161  0.97427797  0.16322344     0.10800
H306        H  0.20416656  0.97358529  0.10457393     0.11400
H307        H  0.28976216  0.94144446  0.34810983     0.11400
H308        H  0.34779772  0.94252279  0.40762603     0.11400
H309        H  0.40743436  0.06097568  0.34719899     0.11500
H310        H  0.34939470  0.05972714  0.28757854     0.10400
C311        C  0.61677167  0.00350579  0.38370425    -0.03500
C312        C  0.61906238  0.03782876  0.35104820    -0.09200
C313        C  0.65315357  0.03724665  0.31835371    -0.16900
C314        C  0.68507519  0.00231899  0.31808617     0.25300
C315        C  0.68290231  0.96808431  0.35064280    -0.18500
C316        C  0.64888778  0.96864258  0.38331452    -0.07500
C317        C  0.71990376  0.00125991  0.28428768    -0.13900
C318        C  0.74908860  0.99971362  0.25598475    -0.13600
C319        C  0.78353043  0.99804933  0.22182042     0.25200
C320        C  0.77138585  0.99624003  0.17619895    -0.19000
C321        C  0.80463819  0.99605146  0.14277357    -0.07500
C322        C  0.85064747  0.99772924  0.15452694    -0.03600
C323        C  0.86254145  0.99869707  0.20062435    -0.08900
C324        C  0.82913174  0.99890426  0.23402071    -0.16500
H325        H  0.59459146  0.06502034  0.35108187     0.11600
H326        H  0.65459585  0.06392111  0.29331598     0.10900
H327        H  0.70744406  0.94094407  0.35071167     0.10800
H328        H  0.64752233  0.94196192  0.40833619     0.11400
H329        H  0.73616983  0.99536572  0.16642243     0.11400
H330        H  0.79418763  0.99493185  0.10771505     0.11400
H331        H  0.89757830  0.99970783  0.21093860     0.11500
H332        H  0.83884918  0.00012066  0.26931354     0.10400
C333        C  0.00528219  0.37682914  0.61534350    -0.03500
C334        C  0.03722732  0.37624206  0.65037822    -0.09200
C335        C  0.03516752  0.34304610  0.68390718    -0.16900
C336        C  0.00119838  0.31015573  0.68270426     0.25300
C337        C  0.96937220  0.31043390  0.64772169    -0.18500
C338        C  0.97137753  0.34365098  0.61417560    -0.07500
C339        C  0.99906765  0.27623647  0.71743548    -0.13900
C340        C  0.99793276  0.24797112  0.74671927    -0.13600
C341        C  0.99722235  0.21409213  0.78153372     0.25200
C342        C  0.01414980  0.17084049  0.77264255    -0.19000
C343        C  0.01344674  0.13776959  0.80630546    -0.07500
C344        C  0.99618210  0.14771799  0.84948489    -0.03600
C345        C  0.97939322  0.19135762  0.85822145    -0.08900
C346        C  0.97978465  0.22429307  0.82433842    -0.16500
H347        H  0.06347348  0.40169405  0.65184228     0.11600
H348        H  0.05993070  0.34312241  0.71084269     0.10900
H349        H  0.94292703  0.28515813  0.64651501     0.10800
H350        H  0.94628522  0.34385211  0.58756488     0.11400
H351        H  0.02791290  0.16267533  0.73968742     0.11400
H352        H  0.02698257  0.10459875  0.79873244     0.11400
H353        H  0.96565704  0.19989771  0.89108211     0.11500
H354        H  0.96657134  0.25769173  0.83153165     0.10400
C355        C  0.99750521  0.84666570  0.85281053    -0.03500
C356        C  0.02699335  0.84998515  0.81574556    -0.09200
C357        C  0.02851304  0.81556987  0.78326960    -0.16900
C358        C  0.00008540  0.77790965  0.78721220     0.25300
C359        C  0.97054123  0.77458991  0.82401459    -0.18500
C360        C  0.96951568  0.80858661  0.85687456    -0.07500
C361        C  0.00076232  0.74278909  0.75343507    -0.13900
C362        C  0.00027343  0.71318149  0.72534195    -0.13600
C363        C  0.99915026  0.67816950  0.69145980     0.25200
C364        C  0.03262896  0.64476370  0.69056800    -0.19000
C365        C  0.03239356  0.61174518  0.65666573    -0.07500
C366        C  0.99862411  0.61183003  0.62335554    -0.03600
C367        C  0.96455974  0.64479408  0.62501503    -0.08900
C368        C  0.96491810  0.67787119  0.65882823    -0.16500
H369        H  0.04925559  0.87885362  0.81232850     0.11600
H370        H  0.05166499  0.81841387  0.75505659     0.10900
H371        H  0.94832113  0.74568655  0.82732628     0.10800
H372        H  0.94646018  0.80548386  0.88513446     0.11400
H373        H  0.05917429  0.64456084  0.71573572     0.11400
H374        H  0.05884258  0.58648942  0.65596482     0.11400
H375        H  0.93808374  0.64514786  0.59978846     0.11500
H376        H  0.93875341  0.70343618  0.65928437     0.10400
C377        C  0.00223341  0.85028130  0.15443426    -0.03500
C378        C  0.00732970  0.80418895  0.14356967    -0.09200
C379        C  0.00738419  0.77134754  0.17757411    -0.16900
C380        C  0.00224408  0.78397910  0.22289854     0.25300
C381        C  0.99756565  0.82969934  0.23416304    -0.18500
C382        C  0.99759917  0.86263677  0.20025160    -0.07500
C383        C  0.00114913  0.74997272  0.25772795    -0.13900
C384        C  0.00004066  0.72121225  0.28661000    -0.13600
C385        C  0.99920523  0.68649431  0.32072729     0.25200
C386        C  0.96309878  0.68376301  0.35121956    -0.19000
C387        C  0.96250575  0.65005639  0.38439311    -0.07500
C388        C  0.99802556  0.61879361  0.38726905    -0.03600
C389        C  0.03402418  0.62157248  0.35653635    -0.08900
C390        C  0.03462311  0.65529676  0.32346653    -0.16500
H391        H  0.01118079  0.79341009  0.10878446     0.11600
H392        H  0.01114296  0.73605235  0.16846531     0.10900
H393        H  0.99359515  0.83988406  0.26914354     0.10800
H394        H  0.99356508  0.89771931  0.20996106     0.11400
H395        H  0.93548006  0.70767090  0.34936742     0.11400
H396        H  0.93443527  0.64823707  0.40777709     0.11400
H397        H  0.06166325  0.59769418  0.35834438     0.11500
H398        H  0.06269806  0.65706463  0.30006433     0.10400
C399        C  0.99786724  0.15094580  0.15026410    -0.03500
C400        C  0.99016683  0.14027387  0.19601320    -0.09200
C401        C  0.99097837  0.17415227  0.22901964    -0.16900
C402        C  0.99954235  0.21903882  0.21676356     0.25300
C403        C  0.00668647  0.23006556  0.17137025    -0.18500
C404        C  0.00574290  0.19633525  0.13829930    -0.07500
C405        C  0.00102442  0.25391093  0.25062811    -0.13900
C406        C  0.00202408  0.28346722  0.27867208    -0.13600
C407        C  0.00243988  0.31823732  0.31267084     0.25200
C408        C  0.03623536  0.35138214  0.31266053    -0.19000
C409        C  0.03717647  0.38428544  0.34666197    -0.07500
C410        C  0.00430918  0.38418182  0.38087308    -0.03600
C411        C  0.97013008  0.35134397  0.38026370    -0.08900
C412        C  0.96923041  0.31851246  0.34631812    -0.16500
H413        H  0.98356542  0.10577927  0.20634689     0.11600
H414        H  0.98513415  0.16530970  0.26407867     0.10900
H415        H  0.01320302  0.26474461  0.16154668     0.10800
H416        H  0.01176851  0.20578791  0.10345520     0.11400
H417        H  0.06197781  0.35156107  0.28664240     0.11400
H418        H  0.06359720  0.40960169  0.34657320     0.11400
H419        H  0.94433893  0.35111707  0.40621681     0.11500
H420        H  0.94283991  0.29315482  0.34648811     0.10400
loop_ 
_geom_bond_atom_site_label_1 
_geom_bond_atom_site_label_2 
_geom_bond_distance 
_geom_bond_site_symmetry_2 
_ccdc_geom_bond_type 
N1            C6   1.353   1_455  A
N1            C5   1.353   1_455  A
N1           H33   1.038       .  S
N2            C9   1.351       .  A
N2           C10   1.351       .  A
N3            C8   1.353   1_455  A
N3            C7   1.354   1_455  A
N3           H34   1.039       .  S
N4           C11   1.353   1_655  A
N4           C12   1.352   1_655  A
C5           C13   1.388       .  A
C5           C21   1.414   1_655  A
C6           C22   1.413       .  A
C6           C14   1.387       .  A
C7           C15   1.387       .  A
C7           C24   1.415   1_655  A
C8           C23   1.414       .  A
C8           C16   1.386       .  A
C9           C21   1.413       .  A
C9           C17   1.387       .  A
C10          C24   1.412       .  A
C10          C18   1.386       .  A
C11          C19   1.385       .  A
C11          C22   1.413   1_455  A
C12          C20   1.386       .  A
C12          C23   1.414   1_455  A
C13          C14   1.374       .  A
C13          H25   1.082       .  S
C14          H26   1.082       .  S
C15          C16   1.374       .  A
C15          H27   1.082       .  S
C16          H28   1.082       .  S
C17          C18   1.372       .  A
C17          H29   1.082       .  S
C18          H30   1.082       .  S
C19          C20   1.371       .  A
C19          H31   1.082       .  S
C20          H32   1.082       .  S
C21         C410   1.483       .  S
C22         C388   1.486       .  S
C23         C366   1.487       .  S
C24         C333   1.486       .  S
O35         Zr71   2.434       .  S
O35          C46   1.292       .  A
O36         Zr70   2.448   1_455  S
O36          C47   1.294       .  A
O37         Zr43   2.434       .  S
O37          C48   1.292       .  A
O38         Zr43   2.435   1_455  S
O38          C49   1.292       .  A
O39         Zr73   2.437   1_554  S
O39          C49   1.293       .  A
O40         Zr72   2.436       .  S
O40          C48   1.293       .  A
O41         Zr43   2.434   1_455  S
O41          C47   1.292       .  A
O42         Zr43   2.437   1_545  S
O42          C46   1.292       .  A
Zr43         O44   2.338   1_655  S
Zr43         O45   2.339   1_565  S
Zr43         O53   2.339   1_665  S
Zr43         O51   2.339       .  S
O44         Zr70   2.339   1_455  S
O44         Zr73   2.342   1_554  S
O45         Zr71   2.337       .  S
O45         Zr72   2.338   1_545  S
C46         C399   1.481       .  S
C47         C377   1.486       .  S
C48         C322   1.482       .  S
C49         C289   1.480       .  S
H50          O51   0.968       .  S
O51         Zr70   2.336       .  S
O51         Zr72   2.343       .  S
H52          O53   0.966       .  S
O53         Zr71   2.341   1_455  S
O53         Zr73   2.342   1_544  S
O54         Zr70   2.438   1_556  S
O54          C77   1.292       .  A
O55         Zr71   2.437   1_556  S
O55          C78   1.292       .  A
O56         Zr72   2.440       .  S
O56          C79   1.293       .  A
O57         Zr73   2.440       .  S
O57          C80   1.293       .  A
O58         Zr73   2.443   1_545  S
O58          C81   1.294       .  A
O59         Zr72   2.444   1_545  S
O59          C82   1.294       .  A
O60         Zr74   2.443       .  S
O60          C83   1.294       .  A
O61         Zr74   2.448   1_455  S
O61          C84   1.294       .  A
O62         Zr72   2.441   1_556  S
O62          C83   1.293       .  A
O63         Zr73   2.440       .  S
O63          C84   1.293       .  A
O64         Zr70   2.441       .  S
O64          C79   1.294       .  A
O65         Zr71   2.432       .  S
O65          C82   1.292       .  A
O66         Zr71   2.430   1_456  S
O66          C81   1.291       .  A
O67         Zr70   2.440   1_456  S
O67          C80   1.293       .  A
O68         Zr74   2.438       .  S
O68          C77   1.292       .  A
O69         Zr74   2.435   1_545  S
O69          C78   1.292       .  A
Zr70         O76   2.341   1_554  S
Zr70         O88   2.342   1_654  S
Zr71         O75   2.342   1_654  S
Zr71         O86   2.338   1_554  S
Zr72         O76   2.341   1_554  S
Zr72         O86   2.339   1_564  S
Zr73         O75   2.340   1_565  S
Zr73         O88   2.337       .  S
Zr74         O75   2.341   1_665  S
Zr74         O76   2.342       .  S
Zr74         O88   2.337   1_655  S
Zr74         O86   2.343   1_565  S
C77         C355   1.472       .  S
C78         C344   1.477       .  S
C79         C168   1.487       .  S
C80         C212   1.484       .  S
C81         C223   1.481       .  S
C82         C179   1.486       .  S
C83         C256   1.487       .  S
C84         C267   1.489       .  S
H85          O86   0.968       .  S
H87          O88   0.968       .  S
N89          C94   1.354   1_545  A
N89          C93   1.353   1_545  A
N89         H121   1.040       .  S
N90          C97   1.353   1_565  A
N90          C98   1.353   1_565  A
N91          C96   1.352   1_545  A
N91          C95   1.353   1_545  A
N91         H122   1.039       .  S
N92          C99   1.352       .  A
N92         C100   1.351       .  A
C93         C101   1.387       .  A
C93         C109   1.415       .  A
C94         C110   1.415       .  A
C94         C102   1.387       .  A
C95         C103   1.387       .  A
C95         C112   1.415   1_565  A
C96         C111   1.414   1_565  A
C96         C104   1.387       .  A
C97         C109   1.415   1_545  A
C97         C105   1.386       .  A
C98         C112   1.415       .  A
C98         C106   1.385       .  A
C99         C107   1.386       .  A
C99         C110   1.412   1_545  A
C100        C108   1.386       .  A
C100        C111   1.412       .  A
C101        C102   1.375       .  A
C101        H113   1.082       .  S
C102        H114   1.082       .  S
C103        C104   1.376       .  A
C103        H115   1.082       .  S
C104        H116   1.082       .  S
C105        C106   1.373       .  A
C105        H117   1.082       .  S
C106        H118   1.082       .  S
C107        C108   1.371       .  A
C107        H119   1.082       .  S
C108        H120   1.082       .  S
C109        C278   1.490       .  S
C110        C245   1.488       .  S
C111        C311   1.483       .  S
C112        C300   1.489       .  S
N123        C128   1.354   1_554  A
N123        C127   1.354   1_554  A
N123        H155   1.038       .  S
N124        C131   1.352       .  A
N124        C132   1.351       .  A
N125        C130   1.353       .  A
N125        C129   1.354       .  A
N125        H156   1.039   1_556  S
N126        C133   1.351   1_556  A
N126        C134   1.352   1_556  A
C127        C135   1.386       .  A
C127        C143   1.415   1_556  A
C128        C144   1.416   1_556  A
C128        C136   1.387       .  A
C129        C137   1.387       .  A
C129        C146   1.416       .  A
C130        C145   1.415       .  A
C130        C138   1.387       .  A
C131        C143   1.412       .  A
C131        C139   1.385       .  A
C132        C146   1.413   1_554  A
C132        C140   1.387       .  A
C133        C141   1.387       .  A
C133        C144   1.414       .  A
C134        C142   1.386       .  A
C134        C145   1.413   1_554  A
C135        C136   1.375       .  A
C135        H147   1.082       .  S
C136        H148   1.082       .  S
C137        C138   1.377       .  A
C137        H149   1.082       .  S
C138        H150   1.082       .  S
C139        C140   1.372       .  A
C139        H151   1.082       .  S
C140        H152   1.082       .  S
C141        C142   1.372       .  A
C141        H153   1.082       .  S
C142        H154   1.082       .  S
C143        C190   1.487       .  S
C144        C234   1.486   1_554  S
C145        C201   1.487       .  S
C146        C157   1.488       .  S
C157        C158   1.403   1_556  A
C157        C162   1.406       .  A
C158        C159   1.399       .  A
C158        H171   1.083       .  S
C159        C160   1.401   1_554  A
C159        H172   1.083       .  S
C160        C161   1.402       .  A
C160        C163   1.443       .  S
C161        C162   1.400       .  A
C161        H173   1.083       .  S
C162        H174   1.083       .  S
C163        C164   1.208       .  T
C164        C165   1.443   1_556  S
C165        C166   1.401       .  A
C165        C170   1.399   1_554  A
C166        C167   1.400       .  A
C166        H175   1.083       .  S
C167        C168   1.409       .  A
C167        H176   1.083       .  S
C168        C169   1.409       .  A
C169        C170   1.398   1_554  A
C169        H177   1.083       .  S
C170        H178   1.083       .  S
C179        C180   1.409       .  A
C179        C184   1.408       .  A
C180        C181   1.399       .  A
C180        H193   1.083       .  S
C181        C182   1.400       .  A
C181        H194   1.083       .  S
C182        C183   1.399       .  A
C182        C185   1.442       .  S
C183        C184   1.399       .  A
C183        H195   1.083       .  S
C184        H196   1.083       .  S
C185        C186   1.208       .  T
C186        C187   1.443       .  S
C187        C188   1.401   1_554  A
C187        C192   1.401       .  A
C188        C189   1.400       .  A
C188        H197   1.083       .  S
C189        C190   1.404   1_556  A
C189        H198   1.083       .  S
C190        C191   1.404       .  A
C191        C192   1.400       .  A
C191        H199   1.083       .  S
C192        H200   1.083       .  S
C201        C202   1.405       .  A
C201        C206   1.404   1_556  A
C202        C203   1.399       .  A
C202        H215   1.083       .  S
C203        C204   1.401       .  A
C203        H216   1.083       .  S
C204        C205   1.400   1_556  A
C204        C207   1.440       .  S
C205        C206   1.398       .  A
C205        H217   1.083       .  S
C206        H218   1.083       .  S
C207        C208   1.206       .  T
C208        C209   1.440       .  S
C209        C210   1.399       .  A
C209        C214   1.399       .  A
C210        C211   1.398   1_556  A
C210        H219   1.084   1_556  S
C211        C212   1.409   1_554  A
C211        H220   1.083       .  S
C212        C213   1.408       .  A
C213        C214   1.398       .  A
C213        H221   1.083       .  S
C214        H222   1.084       .  S
C223        C224   1.407       .  A
C223        C228   1.409   1_556  A
C224        C225   1.397       .  A
C224        H237   1.083       .  S
C225        C226   1.399   1_556  A
C225        H238   1.083       .  S
C226        C227   1.399       .  A
C226        C229   1.437       .  S
C227        C228   1.398       .  A
C227        H239   1.084       .  S
C228        H240   1.083       .  S
C229        C230   1.205       .  T
C230        C231   1.438   1_554  S
C231        C232   1.400       .  A
C231        C236   1.400   1_556  A
C232        C233   1.398       .  A
C232        H241   1.084       .  S
C233        C234   1.405       .  A
C233        H242   1.083       .  S
C234        C235   1.404   1_556  A
C235        C236   1.398       .  A
C235        H243   1.083       .  S
C236        H244   1.083       .  S
C245        C246   1.406       .  A
C245        C250   1.404   1_565  A
C246        C247   1.400       .  A
C246        H259   1.083       .  S
C247        C248   1.402       .  A
C247        H260   1.083       .  S
C248        C249   1.400   1_565  A
C248        C251   1.441       .  S
C249        C250   1.398       .  A
C249        H261   1.083       .  S
C250        H262   1.083       .  S
C251        C252   1.207       .  T
C252        C253   1.442       .  S
C253        C254   1.401       .  A
C253        C258   1.398       .  A
C254        C255   1.401       .  A
C254        H263   1.084       .  S
C255        C256   1.410       .  A
C255        H264   1.083   1_565  S
C256        C257   1.409       .  A
C257        C258   1.398       .  A
C257        H265   1.083       .  S
C258        H266   1.083       .  S
C267        C268   1.409       .  A
C267        C272   1.410       .  A
C268        C269   1.401       .  A
C268        H281   1.083       .  S
C269        C270   1.401       .  A
C269        H282   1.083       .  S
C270        C271   1.399       .  A
C270        C273   1.443       .  S
C271        C272   1.398       .  A
C271        H283   1.084       .  S
C272        H284   1.083       .  S
C273        C274   1.208       .  T
C274        C275   1.443       .  S
C275        C276   1.401   1_565  A
C275        C280   1.401       .  A
C276        C277   1.399       .  A
C276        H285   1.083       .  S
C277        C278   1.405   1_545  A
C277        H286   1.083       .  S
C278        C279   1.406       .  A
C279        C280   1.400       .  A
C279        H287   1.083       .  S
C280        H288   1.083       .  S
C289        C290   1.408   1_565  A
C289        C294   1.407       .  A
C290        C291   1.397       .  A
C290        H303   1.083       .  S
C291        C292   1.399   1_545  A
C291        H304   1.083       .  S
C292        C293   1.400       .  A
C292        C295   1.440       .  S
C293        C294   1.399       .  A
C293        H305   1.083       .  S
C294        H306   1.083       .  S
C295        C296   1.206       .  T
C296        C297   1.441   1_565  S
C297        C298   1.400   1_545  A
C297        C302   1.401       .  A
C298        C299   1.399       .  A
C298        H307   1.083       .  S
C299        C300   1.405   1_565  A
C299        H308   1.083       .  S
C300        C301   1.405       .  A
C301        C302   1.400       .  A
C301        H309   1.083       .  S
C302        H310   1.084       .  S
C311        C312   1.404       .  A
C311        C316   1.404   1_545  A
C312        C313   1.398       .  A
C312        H325   1.083       .  S
C313        C314   1.401       .  A
C313        H326   1.083       .  S
C314        C315   1.399   1_545  A
C314        C317   1.437       .  S
C315        C316   1.396       .  A
C315        H327   1.083       .  S
C316        H328   1.083       .  S
C317        C318   1.204   1_545  T
C318        C319   1.437       .  S
C319        C320   1.398       .  A
C319        C324   1.399       .  A
C320        C321   1.396       .  A
C320        H329   1.084       .  S
C321        C322   1.408       .  A
C321        H330   1.083       .  S
C322        C323   1.409       .  A
C323        C324   1.398       .  A
C323        H331   1.083       .  S
C324        H332   1.084   1_565  S
C333        C334   1.404       .  A
C333        C338   1.405   1_455  A
C334        C335   1.398       .  A
C334        H347   1.083       .  S
C335        C336   1.400       .  A
C335        H348   1.083       .  S
C336        C337   1.400   1_455  A
C336        C339   1.438   1_455  S
C337        C338   1.398       .  A
C337        H349   1.083       .  S
C338        H350   1.083       .  S
C339        C340   1.205       .  T
C340        C341   1.438       .  S
C341        C342   1.399   1_655  A
C341        C346   1.400       .  A
C342        C343   1.397       .  A
C342        H351   1.083       .  S
C343        C344   1.406   1_455  A
C343        H352   1.083       .  S
C344        C345   1.407       .  A
C345        C346   1.398       .  A
C345        H353   1.083       .  S
C346        H354   1.084       .  S
C355        C356   1.405   1_655  A
C355        C360   1.404       .  A
C356        C357   1.399       .  A
C356        H369   1.084       .  S
C357        C358   1.401       .  A
C357        H370   1.083       .  S
C358        C359   1.400   1_455  A
C358        C361   1.440       .  S
C359        C360   1.398       .  A
C359        H371   1.083       .  S
C360        H372   1.083       .  S
C361        C362   1.206       .  T
C362        C363   1.440   1_455  S
C363        C364   1.401   1_655  A
C363        C368   1.401       .  A
C364        C365   1.399       .  A
C364        H373   1.083       .  S
C365        C366   1.405   1_455  A
C365        H374   1.083       .  S
C366        C367   1.405       .  A
C367        C368   1.398       .  A
C367        H375   1.083       .  S
C368        H376   1.083       .  S
C377        C378   1.408       .  A
C377        C382   1.410   1_455  A
C378        C379   1.399       .  A
C378        H391   1.083       .  S
C379        C380   1.399       .  A
C379        H392   1.083       .  S
C380        C381   1.399   1_455  A
C380        C383   1.441       .  S
C381        C382   1.399       .  A
C381        H393   1.084       .  S
C382        H394   1.083       .  S
C383        C384   1.207       .  T
C384        C385   1.441   1_455  S
C385        C386   1.402       .  A
C385        C390   1.400   1_655  A
C386        C387   1.400       .  A
C386        H395   1.083       .  S
C387        C388   1.404       .  A
C387        H396   1.083       .  S
C388        C389   1.404   1_655  A
C389        C390   1.398       .  A
C389        H397   1.083       .  S
C390        H398   1.083       .  S
C399        C400   1.408       .  A
C399        C404   1.408   1_655  A
C400        C401   1.398       .  A
C400        H413   1.083       .  S
C401        C402   1.400       .  A
C401        H414   1.084       .  S
C402        C403   1.398   1_655  A
C402        C405   1.437   1_655  S
C403        C404   1.397       .  A
C403        H415   1.084       .  S
C404        H416   1.083       .  S
C405        C406   1.205       .  T
C406        C407   1.437       .  S
C407        C408   1.401       .  A
C407        C412   1.399   1_455  A
C408        C409   1.399       .  A
C408        H417   1.083       .  S
C409        C410   1.404       .  A
C409        H418   1.083       .  S
C410        C411   1.403   1_455  A
C411        C412   1.396       .  A
C411        H419   1.083       .  S
C412        H420   1.083       .  S
