geometry optimzed in LAMMPS
_audit_creation_date              2020-11-30 
_audit_creation_method            'lammps2cif' 
_symmetry_space_group_name_H-M    'P1' 
_symmetry_Int_Tables_number       1 
_symmetry_cell_setting            triclinic 
loop_ 
_symmetry_equiv_pos_as_xyz 
  x,y,z 
_cell_length_a                    27.5136309 
_cell_length_b                    27.519489182317038 
_cell_length_c                    27.533730000962656 
_cell_angle_alpha                 89.99496226906182 
_cell_angle_beta                  89.96890798297206 
_cell_angle_gamma                 90.02169231046793 
loop_ 
_atom_site_label 
_atom_site_type_symbol 
_atom_site_fract_x 
_atom_site_fract_y 
_atom_site_fract_z 
_atom_site_charge 
O1          O  0.00200721  0.07716516  0.13982013    -0.79900
O2          O  0.99806374  0.08236853  0.86250842    -0.81500
O3          O  0.07855036  0.13916038  0.00165220    -0.78500
O4          O  0.92291373  0.14018837  0.00161515    -0.76900
O5          O  0.86275442  0.08285136  0.99994815    -0.78700
O6          O  0.13874286  0.08187084  0.00012026    -0.79600
O7          O  0.99905848  0.13939278  0.92304445    -0.80900
O8          O  0.00267378  0.13740297  0.08262096    -0.81200
Eu9        Eu  0.00053929  0.09835035  0.00180643     2.39200
O10         O  0.95088268  0.05089815  0.95115431    -0.88700
O11         O  0.04965986  0.04882457  0.05028858    -0.92300
C12         C  0.00317560  0.12209866  0.12701630     1.02300
C13         C  0.99814850  0.12679581  0.87796756     1.02200
C14         C  0.12343092  0.12631732  0.00095416     1.02100
C15         C  0.87800242  0.12732767  0.00056912     1.00000
H16         H  0.06939536  0.07050797  0.93048527     0.29700
O17         O  0.04932644  0.04999550  0.95075165    -1.01100
H18         H  0.92994807  0.07054775  0.07122602     0.29800
O19         O  0.94998469  0.05031447  0.05071035    -1.03700
O20         O  0.99949597  0.92045989  0.86092894    -0.80900
O21         O  0.99956950  0.92088013  0.13827457    -0.80400
O22         O  0.13831355  0.99863389  0.91861372    -0.78900
O23         O  0.86097948  0.00330091  0.92186086    -0.82200
O24         O  0.86063220  0.00062677  0.07823917    -0.80100
O25         O  0.13822579  0.00212595  0.08121417    -0.78700
O26         O  0.08046009  0.86153245  0.00048726    -0.80200
O27         O  0.91843158  0.86225813  0.00014390    -0.82200
O28         O  0.13853064  0.92124825  0.00202805    -0.78900
O29         O  0.86111994  0.92260421  0.99885942    -0.81600
O30         O  0.07802481  0.99913197  0.86124968    -0.77300
O31         O  0.07788177  0.99945699  0.13849467    -0.77300
O32         O  0.91826926  0.99835077  0.13801609    -0.77000
O33         O  0.91831786  0.00251533  0.86169345    -0.80500
O34         O  0.00145602  0.86247906  0.92057211    -0.79900
O35         O  0.99946902  0.86111065  0.08058388    -0.78200
Eu36       Eu  0.99893174  0.00106739  0.90126077     2.39800
Eu37       Eu  0.99891542  0.99938576  0.09811580     2.39600
Eu38       Eu  0.09925684  0.00099519  0.99992473     2.38400
Eu39       Eu  0.90171147  0.00175615  0.00008151     2.39900
Eu40       Eu  0.99966101  0.90142445  0.00031074     2.39800
O41         O  0.94952901  0.95053655  0.04904080    -0.92600
O42         O  0.04845654  0.95204234  0.95120010    -0.91500
C43         C  0.00090850  0.87580889  0.87569700     1.02500
C44         C  0.99971996  0.87606442  0.12510797     1.01200
C45         C  0.12301548  0.99812687  0.87412463     1.00600
C46         C  0.87386775  0.00324316  0.87696072     1.02600
C47         C  0.87371341  0.99925510  0.12306533     1.01600
C48         C  0.12289989  0.00101115  0.12569494     1.00400
C49         C  0.12510887  0.87634901  0.00184690     1.00500
C50         C  0.87392454  0.87753746  0.99923241     1.03100
H51         H  0.06944405  0.93090824  0.06933687     0.30500
O52         O  0.04932904  0.95108396  0.04888555    -1.04800
H53         H  0.92985869  0.93135429  0.93056294     0.32500
O54         O  0.95032079  0.95137244  0.95087436    -1.07400
O55         O  0.99881579  0.42082564  0.36103082    -0.79900
O56         O  0.99746097  0.41974777  0.63783713    -0.81500
O57         O  0.08013228  0.36043983  0.49890355    -0.78500
O58         O  0.91791006  0.36249944  0.49989204    -0.76900
O59         O  0.86066990  0.42292199  0.49861333    -0.78700
O60         O  0.13803025  0.42016843  0.49850430    -0.79600
O61         O  0.99677284  0.36174523  0.57815247    -0.80900
O62         O  0.99868177  0.36078956  0.41847594    -0.81200
Eu63       Eu  0.99924383  0.40090389  0.49864603     2.39200
O64         O  0.95075241  0.45265954  0.54680407    -0.88700
O65         O  0.04979389  0.44910814  0.44960527    -0.92300
C66         C  0.99828845  0.37593453  0.37403310     1.02300
C67         C  0.99644173  0.37506078  0.62301255     1.02200
C68         C  0.12481523  0.37536206  0.49862884     1.02100
C69         C  0.87344182  0.37780257  0.49972956     1.00000
H70         H  0.06850890  0.42999034  0.56869437     0.29700
O71         O  0.04848784  0.45043150  0.54835724    -1.01100
H72         H  0.92975905  0.43073360  0.42869000     0.29800
O73         O  0.95022612  0.45058199  0.44914898    -1.03700
O74         O  0.00022557  0.58236511  0.63669144    -0.80900
O75         O  0.00170645  0.57736155  0.35983114    -0.80400
O76         O  0.13885749  0.49775072  0.57753058    -0.78900
O77         O  0.86072961  0.50218834  0.57552311    -0.82200
O78         O  0.86334386  0.50239823  0.41548657    -0.80100
O79         O  0.13911178  0.49707359  0.41828331    -0.78700
O80         O  0.08306307  0.63759982  0.49983891    -0.80200
O81         O  0.92415811  0.64042904  0.49518528    -0.82200
O82         O  0.14017861  0.57724150  0.50187427    -0.78900
O83         O  0.86364486  0.58331403  0.49467262    -0.81600
O84         O  0.08109933  0.50054759  0.63739620    -0.77300
O85         O  0.07914278  0.49663385  0.36086125    -0.77300
O86         O  0.92392153  0.50178303  0.35863914    -0.77000
O87         O  0.91798837  0.50152851  0.63592456    -0.80500
O88         O  0.00104466  0.63957724  0.57625462    -0.79900
O89         O  0.00289528  0.63789318  0.41670991    -0.78200
Eu90       Eu  0.99980500  0.50079840  0.59799423     2.39800
Eu91       Eu  0.00102257  0.49940585  0.40136657     2.39600
Eu92       Eu  0.09860261  0.49893097  0.49855215     2.38400
Eu93       Eu  0.90178519  0.50213789  0.49683114     2.39900
Eu94       Eu  0.00258060  0.59879931  0.49741239     2.39800
O95         O  0.95213448  0.55065808  0.44830561    -0.92600
O96         O  0.05008490  0.54891343  0.54794053    -0.91500
C97         C  0.00029216  0.62686634  0.62130078     1.02500
C98         C  0.00222294  0.62236836  0.37240354     1.01200
C99         C  0.12572965  0.49887101  0.62243422     1.00600
C100        C  0.87350308  0.50183085  0.62054813     1.02600
C101        C  0.87891271  0.50246394  0.37113238     1.01600
C102        C  0.12398638  0.49622819  0.37382112     1.00400
C103        C  0.12735317  0.62223948  0.50184550     1.00500
C104        C  0.87908833  0.62769818  0.49427225     1.03100
H105        H  0.07244704  0.56887274  0.42810049     0.30500
O106        O  0.05170105  0.54920894  0.44849091    -1.04800
H107        H  0.93160464  0.57120778  0.56651619     0.32500
O108        O  0.95189637  0.55040245  0.54682906    -1.07400
O109        O  0.63906582  0.99537360  0.42235362    -0.79900
O110        O  0.36233606  0.00458887  0.41846798    -0.81500
O111        O  0.50061731  0.91955899  0.36096477    -0.78500
O112        O  0.50394610  0.08196428  0.36314549    -0.76900
O113        O  0.50437209  0.13937582  0.42341493    -0.78700
O114        O  0.49808428  0.86159900  0.42057072    -0.79600
O115        O  0.42242725  0.00498189  0.36090994    -0.80900
O116        O  0.58198858  0.99817801  0.36204840    -0.81200
Eu117      Eu  0.50142589  0.00050108  0.40129032     2.39200
O118        O  0.45260964  0.04997233  0.45153783    -0.88700
O119        O  0.54818937  0.94919940  0.45075924    -0.92300
C120        C  0.62632656  0.99610661  0.37738300     1.02300
C121        C  0.37743123  0.00593563  0.37394052     1.02200
C122        C  0.49949221  0.87486831  0.37580014     1.02100
C123        C  0.50490362  0.12646583  0.37834711     1.00000
H124        H  0.42947912  0.93192266  0.42865333     0.29700
O125        O  0.45000913  0.95144912  0.44936340    -1.01100
H126        H  0.57164363  0.06847898  0.43282083     0.29800
O127        O  0.55047925  0.04844283  0.45240968    -1.03700
O128        O  0.36132008  0.99893337  0.58011946    -0.80900
O129        O  0.63875952  0.99627961  0.57906112    -0.80400
O130        O  0.41640505  0.86254803  0.49921149    -0.78900
O131        O  0.42095980  0.13929269  0.50077365    -0.82200
O132        O  0.58310524  0.13604608  0.50477494    -0.80100
O133        O  0.57563169  0.85865834  0.49719405    -0.78700
O134        O  0.49801907  0.91693246  0.63843781    -0.80200
O135        O  0.50010997  0.07543673  0.64083992    -0.82200
O136        O  0.49692838  0.85981502  0.57807488    -0.78900
O137        O  0.50130589  0.13599902  0.58381153    -0.81600
O138        O  0.35943803  0.92301749  0.49703585    -0.77300
O139        O  0.63623565  0.91560523  0.49833785    -0.77300
O140        O  0.63987006  0.07522383  0.50311891    -0.77000
O141        O  0.36284593  0.07980339  0.49954458    -0.80500
O142        O  0.42109314  0.99690643  0.63793892    -0.79900
O143        O  0.58117208  0.99718160  0.63897086    -0.78200
Eu144      Eu  0.40166348  0.00081077  0.49947805     2.39800
Eu145      Eu  0.59800045  0.99659827  0.50079166     2.39600
Eu146      Eu  0.49730114  0.90093875  0.49946388     2.38400
Eu147      Eu  0.50156808  0.09825911  0.50248180     2.39900
Eu148      Eu  0.50056865  0.99711175  0.59898580     2.39800
O149        O  0.55015321  0.04682126  0.55062792    -0.92600
O150        O  0.44915083  0.95022514  0.54923695    -0.91500
C151        C  0.37622561  0.99766479  0.62471170     1.02500
C152        C  0.62572192  0.99703075  0.62391290     1.01200
C153        C  0.37210606  0.87801135  0.49782506     1.00600
C154        C  0.37623310  0.12454088  0.49982823     1.02600
C155        C  0.62744927  0.12039506  0.50449031     1.01600
C156        C  0.62077290  0.87128160  0.49690704     1.00400
C157        C  0.49724895  0.87260864  0.62307514     1.00500
C158        C  0.50047956  0.12051183  0.62814454     1.03100
H159        H  0.56862811  0.92607212  0.56954480     0.30500
O160        O  0.54869816  0.94705775  0.54969995    -1.04800
H161        H  0.43129692  0.06822669  0.57092595     0.32500
O162        O  0.45154728  0.04817590  0.55043089    -1.07400
O163        O  0.42129193  0.36135166  0.99733749    -0.79900
O164        O  0.41860533  0.63742998  0.00001284    -0.81500
O165        O  0.36144017  0.49773950  0.08104100    -0.78500
O166        O  0.36128088  0.50114992  0.92154933    -0.76900
O167        O  0.41888923  0.50203521  0.86141981    -0.78700
O168        O  0.42145307  0.49715242  0.13853219    -0.79600
O169        O  0.36081827  0.57759684  0.99788764    -0.80900
O170        O  0.36121625  0.41867623  0.00009239    -0.81200
Eu171      Eu  0.40134063  0.49874780  0.00054708     2.39200
O172        O  0.45054330  0.54883441  0.95146418    -0.88700
O173        O  0.45106054  0.44923985  0.04849282    -0.92300
C174        C  0.37639193  0.37428112  0.99887582     1.02300
C175        C  0.37400728  0.62250669  0.99810248     1.02200
C176        C  0.37657308  0.49700575  0.12549806     1.02100
C177        C  0.37431203  0.50203291  0.87661261     1.00000
H178        H  0.42977122  0.56853740  0.07050760     0.29700
O179        O  0.45011734  0.54845323  0.05013269    -1.01100
H180        H  0.43021446  0.43131468  0.92824687     0.29800
O181        O  0.45041820  0.45138393  0.94877192    -1.03700
O182        O  0.58048540  0.63788014  0.00186724    -0.80900
O183        O  0.57826236  0.36076203  0.99654277    -0.80400
O184        O  0.50051426  0.57935630  0.13891366    -0.78900
O185        O  0.49918059  0.58269271  0.86217649    -0.82200
O186        O  0.50222426  0.42341137  0.85880274    -0.80100
O187        O  0.49901022  0.41687996  0.13641223    -0.78700
O188        O  0.63871377  0.49932126  0.08048785    -0.80200
O189        O  0.63929614  0.50020898  0.92146669    -0.82200
O190        O  0.57894276  0.49900474  0.13829332    -0.78900
O191        O  0.58169935  0.50158215  0.86144096    -0.81600
O192        O  0.50037683  0.63738684  0.07939186    -0.77300
O193        O  0.49812596  0.35988075  0.07580239    -0.77300
O194        O  0.50119383  0.36321620  0.91616284    -0.77000
O195        O  0.49762681  0.63947341  0.92285057    -0.80500
O196        O  0.63829655  0.57806973  0.00329175    -0.79900
O197        O  0.63829932  0.41822678  0.99836283    -0.78200
Eu198      Eu  0.49969179  0.59783465  0.00078362     2.39800
Eu199      Eu  0.49993055  0.40172576  0.99713798     2.39600
Eu200      Eu  0.50001031  0.49848735  0.09832026     2.38400
Eu201      Eu  0.50026203  0.50181916  0.90037685     2.39900
Eu202      Eu  0.59858201  0.49874046  0.00035858     2.39800
O203        O  0.54952091  0.45144468  0.94891861    -0.92600
O204        O  0.54915776  0.54805444  0.04947750    -0.91500
C205        C  0.62510024  0.62298961  0.00323985     1.02500
C206        C  0.62318120  0.37375541  0.99708280     1.01200
C207        C  0.50059272  0.62407827  0.12413461     1.00600
C208        C  0.49779121  0.62691698  0.87784558     1.02600
C209        C  0.50223162  0.37841292  0.87174449     1.01600
C210        C  0.49823263  0.37244986  0.12094951     1.00400
C211        C  0.62381196  0.49948344  0.12501166     1.00500
C212        C  0.62629007  0.50104431  0.87650993     1.03100
H213        H  0.56918968  0.42823037  0.06861032     0.30500
O214        O  0.54913916  0.44900156  0.04867024    -1.04800
H215        H  0.57025599  0.57026554  0.93146430     0.32500
O216        O  0.54983951  0.54955007  0.95115256    -1.07400
C217        C  0.50877981  0.24151889  0.29887674     0.16100
C218        C  0.50984576  0.28926332  0.28102781    -0.32900
C219        C  0.50408152  0.29596160  0.23084794     0.20500
C220        C  0.49787526  0.25679542  0.19978204     0.02700
C221        C  0.49692933  0.20901412  0.21761852    -0.22600
C222        C  0.50241323  0.20233809  0.26785957     0.11900
S223        S  0.51375311  0.22599735  0.35866514    -0.06300
C224        C  0.50665774  0.16596156  0.34198784    -0.09700
C225        C  0.50142396  0.15881991  0.29233824    -0.26400
S226        S  0.49200031  0.27252141  0.14010250    -0.03500
C227        C  0.49800316  0.33264055  0.15702049    -0.17000
C228        C  0.50397555  0.33959457  0.20658930    -0.15000
H229        H  0.51465299  0.31988345  0.30525516     0.20400
H230        H  0.49189375  0.17840778  0.19341889     0.16400
H231        H  0.49623390  0.12380128  0.27516147     0.18900
H232        H  0.50862165  0.37462191  0.22390094     0.12300
C233        C  0.50015318  0.74074884  0.20041624     0.16100
C234        C  0.49984240  0.78900717  0.21674967    -0.32900
C235        C  0.49995779  0.79686865  0.26701006     0.20500
C236        C  0.50029350  0.75825643  0.29940291     0.02700
C237        C  0.50064043  0.71001023  0.28306601    -0.22600
C238        C  0.50059212  0.70214580  0.23282018     0.11900
S239        S  0.50001918  0.72388172  0.14103010    -0.06300
C240        C  0.50064672  0.66400313  0.15980086    -0.09700
C241        C  0.50089599  0.65786568  0.20974754    -0.26400
S242        S  0.50022807  0.77507223  0.35880632    -0.03500
C243        C  0.49980262  0.83495715  0.34009533    -0.17000
C244        C  0.49972818  0.84113218  0.29013204    -0.15000
H245        H  0.49952297  0.81907674  0.19137584     0.20400
H246        H  0.50092909  0.67993953  0.30843695     0.16400
H247        H  0.50122455  0.62307522  0.22812383     0.18900
H248        H  0.49943759  0.87593662  0.27178096     0.12300
C249        C  0.50177377  0.75794926  0.70138915     0.16100
C250        C  0.50578895  0.71043992  0.71896869    -0.32900
C251        C  0.50021065  0.70339536  0.76896655     0.20500
C252        C  0.49106249  0.74194689  0.80012218     0.02700
C253        C  0.48697334  0.78951578  0.78252918    -0.22600
C254        C  0.49259372  0.79656376  0.73246096     0.11900
S255        S  0.50751796  0.77377273  0.64196282    -0.06300
C256        C  0.49744409  0.83316147  0.65896542    -0.09700
C257        C  0.49015665  0.84000971  0.70830083    -0.26400
S258        S  0.48590730  0.72587543  0.85959119    -0.03500
C259        C  0.49619083  0.66655618  0.84226584    -0.17000
C260        C  0.50306073  0.65993436  0.79291683    -0.15000
H261        H  0.51302232  0.68030152  0.69473227     0.20400
H262        H  0.47987129  0.81966777  0.80678848     0.16400
H263        H  0.48330294  0.87474639  0.72547795     0.18900
H264        H  0.51015302  0.62533063  0.77556997     0.12300
C265        C  0.49662563  0.19970858  0.74273343     0.16100
C266        C  0.49429347  0.21779896  0.79023979    -0.32900
C267        C  0.49918470  0.26808888  0.79657130     0.20500
C268        C  0.50594097  0.29898304  0.75733541     0.02700
C269        C  0.50824669  0.28090053  0.70984099    -0.22600
C270        C  0.50345141  0.23061730  0.70352236     0.11900
S271        S  0.49204371  0.13985934  0.72750933    -0.06300
C272        C  0.49962288  0.15657093  0.66760571    -0.09700
C273        C  0.50504571  0.20609898  0.66024798    -0.26400
S274        S  0.51059908  0.35882092  0.77249165    -0.03500
C275        C  0.50330454  0.34217194  0.83243825    -0.17000
C276        C  0.49781170  0.29264416  0.83985881    -0.15000
H277        H  0.48898064  0.19373110  0.82090811     0.20400
H278        H  0.51356971  0.30496631  0.67917121     0.16400
H279        H  0.51031058  0.22320587  0.62521081     0.18900
H280        H  0.49259471  0.27558077  0.87492418     0.12300
C281        C  0.75813877  0.29865772  0.50242127     0.16100
C282        C  0.71036324  0.28091963  0.50322503    -0.32900
C283        C  0.70384866  0.23040177  0.50432594     0.20500
C284        C  0.74319256  0.19892438  0.50464696     0.02700
C285        C  0.79101862  0.21666796  0.50389668    -0.22600
C286        C  0.79753237  0.26724245  0.50276122     0.11900
S287        S  0.77348616  0.35867664  0.50092528    -0.06300
C288        C  0.83380516  0.34155227  0.50080030    -0.09700
C289        C  0.84111945  0.29162812  0.50183640    -0.26400
S290        S  0.72760585  0.13891369  0.50550567    -0.03500
C291        C  0.66733143  0.15630148  0.50527390    -0.15000
C292        C  0.66021087  0.20620328  0.50477649    -0.15000
H293        H  0.67959868  0.30544938  0.50288604     0.20400
H294        H  0.82177816  0.19212907  0.50406417     0.16400
H295        H  0.87636242  0.27411709  0.50192359     0.18900
H296        H  0.62503731  0.22384940  0.50431834     0.12300
C297        C  0.79999365  0.74256717  0.49262241     0.16100
C298        C  0.78194550  0.79017343  0.49363778    -0.32900
C299        C  0.73135833  0.79623342  0.49321583     0.20500
C300        C  0.70016599  0.75667410  0.49141867     0.02700
C301        C  0.71822232  0.70909049  0.49018601    -0.22600
C302        C  0.76878045  0.70301227  0.49105473     0.11900
S303        S  0.86007411  0.72754965  0.49404638    -0.06300
C304        C  0.84303833  0.66722628  0.49289684    -0.09700
C305        C  0.79325465  0.65963419  0.49116704    -0.26400
S306        S  0.64003189  0.77157099  0.49176451    -0.03500
C307        C  0.65694139  0.83184539  0.49475079    -0.17000
C308        C  0.70677782  0.83952802  0.49506631    -0.15000
H309        H  0.80625159  0.82109689  0.49518205     0.20400
H310        H  0.69391363  0.67815156  0.48909510     0.16400
H311        H  0.77588129  0.62432248  0.49039341     0.18900
H312        H  0.72410003  0.87482759  0.49688947     0.12300
C313        C  0.25947898  0.20050262  0.49877160     0.16100
C314        C  0.21117254  0.21664250  0.49926206    -0.32900
C315        C  0.20314350  0.26686938  0.49854929     0.20500
C316        C  0.24164289  0.29941505  0.49721581     0.02700
C317        C  0.28995048  0.28326721  0.49660270    -0.22600
C318        C  0.29798589  0.23304542  0.49753869     0.11900
S319        S  0.27648963  0.14118959  0.50000712    -0.06300
C320        C  0.33631070  0.16016467  0.49912302    -0.09700
C321        C  0.34234442  0.21012439  0.49771862    -0.26400
S322        S  0.22462145  0.35875665  0.49672920    -0.03500
C323        C  0.16481279  0.33979004  0.49834899    -0.17000
C324        C  0.15880077  0.28980715  0.49919977    -0.15000
H325        H  0.18119542  0.19114988  0.50035893     0.20400
H326        H  0.31993222  0.30875893  0.49567179     0.16400
H327        H  0.37709365  0.22860178  0.49697914     0.18900
H328        H  0.12406451  0.27132140  0.50028794     0.12300
C329        C  0.25731387  0.79959549  0.49463156     0.16100
C330        C  0.20976618  0.78177634  0.49167946    -0.32900
C331        C  0.20289524  0.73190499  0.49895490     0.20500
C332        C  0.24160497  0.70116718  0.50883515     0.02700
C333        C  0.28911331  0.71903777  0.51208665    -0.22600
C334        C  0.29601335  0.76887550  0.50460709     0.11900
S335        S  0.27316666  0.85886192  0.48678238    -0.06300
C336        C  0.33262062  0.84214661  0.49721041    -0.09700
C337        C  0.33944782  0.79307464  0.50598166    -0.26400
S338        S  0.22596316  0.64165466  0.51512487    -0.03500
C339        C  0.16660243  0.65828969  0.50412597    -0.17000
C340        C  0.15960797  0.70754071  0.49652851    -0.15000
H341        H  0.17952250  0.80567121  0.48376071     0.20400
H342        H  0.31939330  0.69509466  0.51971241     0.16400
H343        H  0.37416443  0.77613893  0.51351272     0.18900
H344        H  0.12494028  0.72444708  0.48870655     0.12300
C345        C  0.80159343  0.50470147  0.25528716     0.16100
C346        C  0.78422391  0.50598754  0.20744203    -0.32900
C347        C  0.73381281  0.50323083  0.20065039     0.20500
C348        C  0.70225423  0.49951757  0.23979034     0.02700
C349        C  0.71960896  0.49823598  0.28752434    -0.22600
C350        C  0.76991776  0.50090401  0.29432041     0.11900
S351        S  0.86133447  0.50723324  0.27126020    -0.06300
C352        C  0.84340584  0.50315435  0.33122416    -0.09700
C353        C  0.79366042  0.50005233  0.33801971    -0.26400
S354        S  0.64250920  0.49662414  0.22433290    -0.03500
C355        C  0.65996529  0.50013323  0.16430594    -0.17000
C356        C  0.70972046  0.50359085  0.15704474    -0.15000
H357        H  0.80889011  0.50887926  0.17691145     0.20400
H358        H  0.69494700  0.49522144  0.31804566     0.16400
H359        H  0.77583889  0.49706227  0.37297267     0.18900
H360        H  0.72725372  0.50621749  0.12191485     0.12300
C361        C  0.29965412  0.49294714  0.24118738     0.16100
C362        C  0.28292566  0.49135143  0.28917431    -0.32900
C363        C  0.23264600  0.49273547  0.29657266     0.20500
C364        C  0.20052180  0.49531768  0.25782704     0.02700
C365        C  0.21723502  0.49647799  0.20980366    -0.22600
C366        C  0.26754515  0.49534247  0.20242022     0.11900
S367        S  0.35922730  0.49282399  0.22495141    -0.06300
C368        C  0.34087265  0.49582194  0.16515210    -0.09700
C369        C  0.29099414  0.49690064  0.15850971    -0.26400
S370        S  0.14103675  0.49763790  0.27423355    -0.03500
C371        C  0.15951639  0.49511557  0.33404403    -0.17000
C372        C  0.20931976  0.49251068  0.34056061    -0.15000
H373        H  0.30802496  0.48959014  0.31940876     0.20400
H374        H  0.19214538  0.49862627  0.17958468     0.16400
H375        H  0.27293664  0.49891851  0.12362587     0.18900
H376        H  0.22743068  0.49083842  0.37543398     0.12300
C377        C  0.25844265  0.50635683  0.79895631     0.16100
C378        C  0.21059973  0.50974510  0.78170176    -0.32900
C379        C  0.20298163  0.50321665  0.73177705     0.20500
C380        C  0.24137434  0.49366326  0.70054213     0.02700
C381        C  0.28919789  0.49025282  0.71779858    -0.22600
C382        C  0.29683445  0.49695868  0.76767080     0.11900
S383        S  0.27506682  0.51284425  0.85818980    -0.06300
C384        C  0.33452831  0.50298096  0.84076482    -0.09700
C385        C  0.34069856  0.49516660  0.79140374    -0.26400
S386        S  0.22485141  0.48734117  0.64127534    -0.03500
C387        C  0.16542281  0.49780335  0.65848436    -0.17000
C388        C  0.15918969  0.50549801  0.70788816    -0.15000
H389        H  0.18065298  0.51720388  0.80612395     0.20400
H390        H  0.31915688  0.48284964  0.69337409     0.16400
H391        H  0.37523759  0.48801764  0.77393398     0.18900
H392        H  0.12466155  0.51285831  0.72528620     0.12300
C393        C  0.75765601  0.49928993  0.69866595     0.16100
C394        C  0.70980130  0.49702872  0.71614034    -0.32900
C395        C  0.70284766  0.49979345  0.76652809     0.20500
C396        C  0.74187640  0.50458141  0.79802644     0.02700
C397        C  0.78970802  0.50686995  0.78055277    -0.22600
C398        C  0.79666321  0.50404756  0.73019425     0.11900
S399        S  0.77362638  0.49651596  0.63891282    -0.06300
C400        C  0.83364534  0.50163590  0.65643879    -0.09700
C401        C  0.84042247  0.50535893  0.70620878    -0.26400
S402        S  0.72602469  0.50710357  0.85780233    -0.03500
C403        C  0.66599347  0.50175237  0.84041078    -0.17000
C404        C  0.65912226  0.49821545  0.79061709    -0.15000
H405        H  0.67934271  0.49324168  0.69153401     0.20400
H406        H  0.82017417  0.51058993  0.80516016     0.16400
H407        H  0.87539823  0.50889508  0.72388269     0.18900
H408        H  0.62412679  0.49451295  0.77301799     0.12300
C409        C  0.74073968  0.70120344  0.00824861     0.16100
C410        C  0.78862904  0.71844785  0.01123703    -0.32900
C411        C  0.79632973  0.76833290  0.00427753     0.20500
C412        C  0.75794663  0.79960317  0.99488931     0.02700
C413        C  0.71005439  0.78233657  0.99179621    -0.22600
C414        C  0.70235590  0.73243435  0.99872106     0.11900
S415        S  0.72412772  0.64195613  0.01505416    -0.06300
C416        C  0.66470650  0.65914611  0.00471392    -0.09700
C417        C  0.65850130  0.70855235  0.99682655    -0.26400
S418        S  0.77461176  0.85889276  0.98831559    -0.03500
C419        C  0.83407059  0.84159216  0.99830963    -0.17000
C420        C  0.84021093  0.79215184  0.00604181    -0.15000
H421        H  0.81857218  0.69402048  0.01864051     0.20400
H422        H  0.68011198  0.80675803  0.98437537     0.16400
H423        H  0.62398276  0.72592203  0.98940249     0.18900
H424        H  0.87473941  0.77468773  0.01319495     0.12300
C425        C  0.80048732  0.24290737  0.99756533     0.16100
C426        C  0.78325491  0.29078032  0.99623162    -0.32900
C427        C  0.73281873  0.29759857  0.99623839     0.20500
C428        C  0.70105162  0.25844991  0.99728229     0.02700
C429        C  0.71828210  0.21060717  0.99848003    -0.22600
C430        C  0.76868437  0.20378981  0.99868338     0.11900
S431        S  0.86025724  0.22709522  0.99815916    -0.06300
C432        C  0.84228860  0.16703712  0.99986111    -0.09700
C433        C  0.79245062  0.16005986  0.00001417    -0.26400
S434        S  0.64126982  0.27412398  0.99755149    -0.03500
C435        C  0.65908302  0.33420431  0.99653115    -0.17000
C436        C  0.70893572  0.34130881  0.99576236    -0.15000
H437        H  0.80805939  0.32133773  0.99546715     0.20400
H438        H  0.69347845  0.18005536  0.99943420     0.16400
H439        H  0.77459874  0.12499278  0.00099666     0.18900
H440        H  0.72670260  0.37642864  0.99517558     0.12300
C441        C  0.25889226  0.70100426  0.98898978     0.16100
C442        C  0.21134973  0.71855928  0.98337762    -0.32900
C443        C  0.20272224  0.76750089  0.99464351     0.20500
C444        C  0.23991131  0.79757182  0.01057881     0.02700
C445        C  0.28739712  0.77999665  0.01628505    -0.22600
C446        C  0.29601478  0.73106825  0.00508949     0.11900
S447        S  0.27649103  0.64264047  0.97810656    -0.06300
C448        C  0.33450342  0.65866008  0.99579877    -0.09700
C449        C  0.33964081  0.70707136  0.00876851    -0.26400
S450        S  0.22254598  0.85601438  0.02118716    -0.03500
C451        C  0.16444851  0.84004258  0.00388404    -0.17000
C452        C  0.15910528  0.79157393  0.99111262    -0.15000
H453        H  0.18236950  0.69507904  0.97082226     0.20400
H454        H  0.31637710  0.80348502  0.02882441     0.16400
H455        H  0.37315153  0.72353028  0.02121941     0.18900
H456        H  0.12548997  0.77515091  0.97889266     0.12300
C457        C  0.20001193  0.24241617  0.00215122     0.16100
C458        C  0.21685383  0.29044324  0.00283406    -0.32900
C459        C  0.26720445  0.29766753  0.00144630     0.20500
C460        C  0.29921690  0.25876174  0.99966068     0.02700
C461        C  0.28237960  0.21080008  0.99916489    -0.22600
C462        C  0.23209072  0.20356448  0.00036935     0.11900
S463        S  0.14042765  0.22609141  0.00307654    -0.06300
C464        C  0.15889079  0.16619658  0.00111011    -0.09700
C465        C  0.20871881  0.15962111  0.99977840    -0.26400
S466        S  0.35881825  0.27478723  0.99783597    -0.03500
C467        C  0.34063884  0.33468854  0.99936613    -0.17000
C468        C  0.29079284  0.34153604  0.00133418    -0.15000
H469        H  0.19183107  0.32078692  0.00415527     0.20400
H470        H  0.30739845  0.18046436  0.99768933     0.16400
H471        H  0.22682579  0.12471336  0.99839163     0.18900
H472        H  0.27285475  0.37654271  0.00253117     0.12300
C473        C  0.75794168  0.00159231  0.80012220     0.16100
C474        C  0.70994238  0.99965182  0.78331624    -0.32900
C475        C  0.70267537  0.99970530  0.73299667     0.20500
C476        C  0.74154490  0.00177838  0.70094257     0.02700
C477        C  0.78953760  0.00385040  0.71774801    -0.22600
C478        C  0.79680666  0.00359419  0.76805757     0.11900
S479        S  0.77417183  0.00118651  0.85969027    -0.06300
C480        C  0.83408666  0.00350854  0.84136189    -0.09700
C481        C  0.84074503  0.00473109  0.79150970    -0.26400
S482        S  0.72535906  0.00129823  0.64136547    -0.03500
C483        C  0.66544391  0.99821873  0.65963616    -0.17000
C484        C  0.65876330  0.99769124  0.70950928    -0.15000
H485        H  0.67963186  0.99794575  0.80836889     0.20400
H486        H  0.81986250  0.00535249  0.69269813     0.16400
H487        H  0.87569898  0.00607308  0.77344939     0.18900
H488        H  0.62382237  0.99593593  0.72755516     0.12300
C489        C  0.19998870  0.99339417  0.75782011     0.16100
C490        C  0.21673393  0.99186199  0.70972804    -0.32900
C491        C  0.26702247  0.99459615  0.70211418     0.20500
C492        C  0.29909131  0.99837435  0.74079230     0.02700
C493        C  0.28235849  0.99988134  0.78885459    -0.22600
C494        C  0.23207799  0.99740676  0.79645214     0.11900
S495        S  0.14043151  0.99132537  0.77444496    -0.06300
C496        C  0.15872836  0.99628471  0.83420366    -0.09700
C497        C  0.20864980  0.99897449  0.84048277    -0.26400
S498        S  0.35859826  0.00111478  0.72428946    -0.03500
C499        C  0.34034902  0.99737644  0.66445334    -0.17000
C500        C  0.29047489  0.99411371  0.65804590    -0.15000
H501        H  0.19163781  0.98891852  0.67958504     0.20400
H502        H  0.30744777  0.00305291  0.81898232     0.16400
H503        H  0.22676936  0.00238421  0.87522301     0.18900
H504        H  0.27241827  0.99142360  0.62320966     0.12300
C505        C  0.20030076  0.00158884  0.24186341     0.16100
C506        C  0.21741803  0.00050191  0.28983881    -0.32900
C507        C  0.26764056  0.00522607  0.29714051     0.20500
C508        C  0.29928133  0.01099259  0.25833394     0.02700
C509        C  0.28213718  0.01229734  0.21039375    -0.22600
C510        C  0.23197213  0.00731277  0.20307402     0.11900
S511        S  0.14084570  0.99609088  0.22549119    -0.06300
C512        C  0.15866231  0.00159264  0.16560576    -0.09700
C513        C  0.20832883  0.00725086  0.15914327    -0.26400
S514        S  0.35891561  0.01490552  0.27450240    -0.03500
C515        C  0.34133397  0.00833588  0.33432883    -0.17000
C516        C  0.29152027  0.00391538  0.34095162    -0.15000
H517        H  0.19270104  0.99582309  0.32010416     0.20400
H518        H  0.30688542  0.01660581  0.18010075     0.16400
H519        H  0.22613310  0.01138401  0.12429959     0.18900
H520        H  0.27382978  0.99905903  0.37576088     0.12300
C521        C  0.74172060  0.99033872  0.29954536     0.16100
C522        C  0.78952786  0.98733539  0.28222583    -0.32900
C523        C  0.79688444  0.99323893  0.23222281     0.20500
C524        C  0.75826609  0.00153333  0.20092857     0.02700
C525        C  0.71046855  0.00436902  0.21821553    -0.22600
C526        C  0.70313782  0.99862285  0.26820986     0.11900
S527        S  0.72545463  0.98520579  0.35898260    -0.06300
C528        C  0.66596731  0.99445250  0.34156340    -0.09700
C529        C  0.65944659  0.00082417  0.29207462    -0.26400
S530        S  0.77451034  0.00774290  0.14163862    -0.03500
C531        C  0.83411309  0.99909285  0.15898701    -0.17000
C532        C  0.84066223  0.99189170  0.20836703    -0.15000
H533        H  0.81966559  0.98095773  0.30668931     0.20400
H534        H  0.68035342  0.01097852  0.19378230     0.16400
H535        H  0.62479575  0.00733106  0.27460135     0.18900
H536        H  0.87540711  0.98576490  0.22578487     0.12300
C537        C  0.99307099  0.25921894  0.70108988     0.16100
C538        C  0.99194403  0.21123227  0.71824560    -0.32900
C539        C  0.99431614  0.20405721  0.76860081     0.20500
C540        C  0.99750506  0.24301273  0.80039317     0.02700
C541        C  0.99844962  0.29101476  0.78323469    -0.22600
C542        C  0.99620358  0.29819992  0.73286047     0.11900
S543        S  0.99143208  0.27531082  0.64138403    -0.06300
C544        C  0.99502497  0.33538680  0.65913406    -0.09700
C545        C  0.99721820  0.34210094  0.70902648    -0.26400
S546        S  0.00037065  0.22681480  0.86006499    -0.03500
C547        C  0.99732850  0.16676736  0.84220313    -0.17000
C548        C  0.99417494  0.16014025  0.79234998    -0.15000
H549        H  0.98959901  0.18082019  0.69339664     0.20400
H550        H  0.00106592  0.32141074  0.80807056     0.16400
H551        H  0.99984652  0.37707209  0.72685979     0.18900
H552        H  0.99196134  0.12516784  0.77445389     0.12300
C553        C  0.00433809  0.76010955  0.79760178     0.16100
C554        C  0.00653633  0.71214565  0.78055779    -0.32900
C555        C  0.00212128  0.70462197  0.73041482     0.20500
C556        C  0.99580513  0.74324848  0.69868702     0.02700
C557        C  0.99347795  0.79127144  0.71575567    -0.22600
C558        C  0.99797538  0.79879897  0.76595567     0.11900
S559        S  0.00874750  0.77643630  0.85707393    -0.06300
C560        C  0.00186433  0.83622797  0.83949400    -0.09700
C561        C  0.99666299  0.84273152  0.78976467    -0.26400
S562        S  0.99197020  0.72663284  0.63917058    -0.03500
C563        C  0.99904343  0.66688979  0.65704344    -0.17000
C564        C  0.00378472  0.66065248  0.70680263    -0.15000
H565        H  0.01156200  0.68200382  0.80533604     0.20400
H566        H  0.98853445  0.82142335  0.69097325     0.16400
H567        H  0.99176075  0.87753330  0.77207418     0.18900
H568        H  0.00872791  0.62595685  0.72468728     0.12300
C569        C  0.00066895  0.69934337  0.25658337     0.16100
C570        C  0.99972758  0.71634581  0.20865097    -0.32900
C571        C  0.00046484  0.76671798  0.20157090     0.20500
C572        C  0.00211435  0.79864055  0.24053673     0.02700
C573        C  0.00301721  0.78165042  0.28844323    -0.22600
C574        C  0.00223880  0.73130619  0.29551581     0.11900
S575        S  0.00004074  0.63966830  0.27266896    -0.06300
C576        C  0.00194146  0.65788836  0.33257666    -0.09700
C577        C  0.00292597  0.70773664  0.33933379    -0.26400
S578        S  0.00273715  0.85830026  0.22459216    -0.03500
C579        C  0.00051340  0.84022778  0.16465271    -0.17000
C580        C  0.99958804  0.79038521  0.15776639    -0.15000
H581        H  0.99845050  0.69141332  0.17824907     0.20400
H582        H  0.00425335  0.80658502  0.31884827     0.16400
H583        H  0.00410856  0.72572587  0.37429767     0.18900
H584        H  0.99820174  0.77249240  0.12276375     0.12300
C585        C  0.99657125  0.29846324  0.25863659     0.16100
C586        C  0.99609164  0.28138274  0.21074091    -0.32900
C587        C  0.00095840  0.23124936  0.20362529     0.20500
C588        C  0.00604098  0.19958352  0.24250053     0.02700
C589        C  0.00673619  0.21669217  0.29038801    -0.22600
C590        C  0.00187379  0.26682262  0.29750528     0.11900
S591        S  0.99150471  0.35792187  0.27470156    -0.06300
C592        C  0.99721803  0.34013422  0.33449009    -0.09700
C593        C  0.00209421  0.29051695  0.34127255    -0.26400
S594        S  0.01019779  0.14002509  0.22646237    -0.03500
C595        C  0.00479248  0.15784405  0.16664704    -0.17000
C596        C  0.00051496  0.20753014  0.15987210    -0.15000
H597        H  0.99197992  0.30607017  0.18038675     0.20400
H598        H  0.01072797  0.19199761  0.32075070     0.16400
H599        H  0.00635446  0.27285247  0.37616119     0.18900
H600        H  0.99636264  0.22522867  0.12498748     0.12300
loop_ 
_geom_bond_atom_site_label_1 
_geom_bond_atom_site_label_2 
_geom_bond_distance 
_geom_bond_site_symmetry_2 
_ccdc_geom_bond_type 
O1           C12   1.286       .  A
O1          Eu37   2.431   1_445  S
O2           C13   1.295       .  A
O2          Eu36   2.479       .  S
O3           C14   1.285       .  A
O3           Eu9   2.422       .  S
O4           C15   1.286       .  A
O4           Eu9   2.427   1_655  S
O5           C15   1.294   1_556  A
O5          Eu39   2.476   1_556  S
O6           C14   1.294       .  A
O6          Eu38   2.476   1_554  S
O7           C13   1.289       .  A
O7           Eu9   2.445   1_656  S
O8           C12   1.293       .  A
O8           Eu9   2.472       .  S
Eu9          O19   2.343   1_455  S
Eu9          O11   2.339       .  S
Eu9          O10   2.349   1_454  S
Eu9          O17   2.355   1_554  S
O10         Eu39   2.339   1_556  S
O10         Eu36   2.348       .  S
O11         Eu37   2.352   1_445  S
O11         Eu38   2.349   1_554  S
C12         C595   1.470       .  S
C13         C547   1.476       .  S
C14         C464   1.468       .  S
C15         C432   1.470   1_554  S
H16          O17   0.967       .  S
O17         Eu38   2.354       .  S
O17         Eu36   2.365   1_455  S
H18          O19   0.966       .  S
O19         Eu37   2.342   1_545  S
O19         Eu39   2.344       .  S
O20          C43   1.295   1_655  A
O20         Eu36   2.481   1_565  S
O21          C44   1.286       .  A
O21         Eu37   2.427       .  S
O22          C45   1.296       .  A
O22         Eu38   2.484   1_565  S
O23          C46   1.286       .  A
O23         Eu39   2.429   1_556  S
O24          C47   1.286   1_545  A
O24         Eu39   2.430       .  S
O25          C48   1.295       .  A
O25         Eu38   2.482   1_554  S
O26          C49   1.295       .  A
O26         Eu40   2.480   1_455  S
O27          C50   1.295   1_554  A
O27         Eu40   2.481       .  S
O28          C49   1.289       .  A
O28         Eu38   2.447   1_564  S
O29          C50   1.289       .  A
O29         Eu39   2.448   1_566  S
O30          C45   1.288       .  A
O30         Eu36   2.439   1_465  S
O31          C48   1.288   1_565  A
O31         Eu37   2.441   1_455  S
O32          C47   1.294       .  A
O32         Eu37   2.476       .  S
O33          C46   1.293       .  A
O33         Eu36   2.472       .  S
O34          C43   1.289       .  A
O34         Eu40   2.444   1_456  S
O35          C44   1.293       .  A
O35         Eu40   2.473       .  S
Eu36         O54   2.350   1_545  S
Eu36         O42   2.360   1_645  S
Eu37         O41   2.341       .  S
Eu37         O52   2.351   1_655  S
Eu38         O52   2.364   1_546  S
Eu38         O42   2.360   1_545  S
Eu39         O41   2.353   1_545  S
Eu39         O54   2.355   1_544  S
Eu40         O41   2.351       .  S
Eu40         O52   2.350   1_655  S
Eu40         O54   2.364   1_554  S
Eu40         O42   2.360   1_654  S
C43         C560   1.477       .  S
C44         C579   1.469   1_655  S
C45         C496   1.475       .  S
C46         C480   1.470       .  S
C47         C531   1.471       .  S
C48         C512   1.476       .  S
C49         C451   1.474       .  S
C50         C419   1.477       .  S
H51          O52   0.965       .  S
H53          O54   0.966       .  S
O55          C66   1.286       .  A
O55         Eu91   2.432   1_655  S
O56          C67   1.296       .  A
O56         Eu90   2.486       .  S
O57          C68   1.296       .  A
O57         Eu63   2.489   1_455  S
O58          C69   1.294       .  A
O58         Eu63   2.475       .  S
O59          C69   1.291       .  A
O59         Eu93   2.456       .  S
O60          C68   1.285       .  A
O60         Eu92   2.424       .  S
O61          C67   1.288       .  A
O61         Eu63   2.441       .  S
O62          C66   1.293       .  A
O62         Eu63   2.468       .  S
Eu63         O73   2.355       .  S
Eu63         O65   2.348   1_655  S
Eu63         O64   2.359       .  S
Eu63         O71   2.360   1_655  S
O64         Eu93   2.359       .  S
O64         Eu90   2.359       .  S
O65         Eu91   2.342       .  S
O65         Eu92   2.345       .  S
C66         C592   1.469       .  S
C67         C544   1.477       .  S
C68         C323   1.473       .  S
C69         C288   1.478       .  S
H70          O71   0.966       .  S
O71         Eu92   2.358       .  S
O71         Eu90   2.363   1_455  S
H72          O73   0.966       .  S
O73         Eu91   2.342   1_655  S
O73         Eu93   2.348       .  S
O74          C97   1.296       .  A
O74         Eu90   2.485   1_455  S
O75          C98   1.286       .  A
O75         Eu91   2.431       .  S
O76          C99   1.288       .  A
O76         Eu92   2.441       .  S
O77         C100   1.289       .  A
O77         Eu93   2.443       .  S
O78         C101   1.294       .  A
O78         Eu93   2.477       .  S
O79         C102   1.293       .  A
O79         Eu92   2.475       .  S
O80         C103   1.291       .  A
O80         Eu94   2.459       .  S
O81         C104   1.289       .  A
O81         Eu94   2.444   1_655  S
O82         C103   1.288       .  A
O82         Eu92   2.441       .  S
O83         C104   1.293       .  A
O83         Eu93   2.469       .  S
O84          C99   1.296       .  A
O84         Eu90   2.486   1_455  S
O85         C102   1.285       .  A
O85         Eu91   2.422       .  S
O86         C101   1.285       .  A
O86         Eu91   2.427   1_655  S
O87         C100   1.295       .  A
O87         Eu90   2.481       .  S
O88          C97   1.289       .  A
O88         Eu94   2.444       .  S
O89          C98   1.293       .  A
O89         Eu94   2.469       .  S
Eu90        O108   2.364       .  S
Eu90         O96   2.359   1_655  S
Eu91         O95   2.339   1_455  S
Eu91        O106   2.347       .  S
Eu92        O106   2.341       .  S
Eu92         O96   2.350       .  S
Eu93         O95   2.342       .  S
Eu93        O108   2.358       .  S
Eu94         O95   2.347   1_455  S
Eu94        O106   2.346       .  S
Eu94        O108   2.359   1_455  S
Eu94         O96   2.352       .  S
C97         C563   1.478   1_455  S
C98         C576   1.469       .  S
C99         C387   1.476       .  S
C100        C400   1.476       .  S
C101        C352   1.471       .  S
C102        C371   1.468       .  S
C103        C339   1.468       .  S
C104        C304   1.473       .  S
H105        O106   0.966       .  S
H107        O108   0.966       .  S
O109        C120   1.287       .  A
O109       Eu145   2.437       .  S
O110        C121   1.295       .  A
O110       Eu144   2.482       .  S
O111        C122   1.296       .  A
O111       Eu117   2.489   1_565  S
O112        C123   1.295       .  A
O112       Eu117   2.476       .  S
O113        C123   1.291       .  A
O113       Eu147   2.455       .  S
O114        C122   1.286       .  A
O114       Eu146   2.427       .  S
O115        C121   1.289       .  A
O115       Eu117   2.445       .  S
O116        C120   1.292       .  A
O116       Eu117   2.466   1_565  S
Eu117       O127   2.355       .  S
Eu117       O119   2.347   1_545  S
Eu117       O118   2.360       .  S
Eu117       O125   2.360   1_545  S
O118       Eu147   2.356       .  S
O118       Eu144   2.352       .  S
O119       Eu145   2.341       .  S
O119       Eu146   2.349       .  S
C120        C528   1.471       .  S
C121        C515   1.477       .  S
C122        C243   1.474       .  S
C123        C224   1.478       .  S
H124        O125   0.966       .  S
O125       Eu146   2.352       .  S
O125       Eu144   2.349   1_565  S
H126        O127   0.966       .  S
O127       Eu145   2.350   1_545  S
O127       Eu147   2.364       .  S
O128        C151   1.295       .  A
O128       Eu144   2.482   1_565  S
O129        C152   1.286       .  A
O129       Eu145   2.430       .  S
O130        C153   1.292       .  A
O130       Eu146   2.463       .  S
O131        C154   1.296       .  A
O131       Eu147   2.490       .  S
O132        C155   1.294       .  A
O132       Eu147   2.473       .  S
O133        C156   1.290       .  A
O133       Eu146   2.450       .  S
O134        C157   1.291       .  A
O134       Eu148   2.460       .  S
O135        C158   1.289       .  A
O135       Eu148   2.444   1_545  S
O136        C157   1.288       .  A
O136       Eu146   2.442       .  S
O137        C158   1.293       .  A
O137       Eu147   2.469       .  S
O138        C153   1.287       .  A
O138       Eu144   2.436   1_565  S
O139        C156   1.292       .  A
O139       Eu145   2.466       .  S
O140        C155   1.290       .  A
O140       Eu145   2.452   1_545  S
O141        C154   1.285       .  A
O141       Eu144   2.422       .  S
O142        C151   1.287       .  A
O142       Eu148   2.435       .  S
O143        C152   1.294       .  A
O143       Eu148   2.476       .  S
Eu144       O162   2.356       .  S
Eu144       O150   2.351   1_545  S
Eu145       O149   2.351   1_565  S
Eu145       O160   2.347       .  S
Eu146       O160   2.350       .  S
Eu146       O150   2.339       .  S
Eu147       O149   2.356       .  S
Eu147       O162   2.352       .  S
Eu148       O149   2.346   1_565  S
Eu148       O160   2.344       .  S
Eu148       O162   2.363   1_565  S
Eu148       O150   2.354       .  S
C151        C499   1.473       .  S
C152        C483   1.471       .  S
C153        C336   1.468       .  S
C154        C320   1.473       .  S
C155        C291   1.477       .  S
C156        C307   1.474       .  S
C157        C256   1.468       .  S
C158        C272   1.472       .  S
H159        O160   0.966       .  S
H161        O162   0.966       .  S
O163        C174   1.286       .  A
O163       Eu199   2.432       .  S
O164        C175   1.295   1_554  A
O164       Eu198   2.483       .  S
O165        C176   1.293       .  A
O165       Eu171   2.473       .  S
O166        C177   1.288       .  A
O166       Eu171   2.440   1_556  S
O167        C177   1.296       .  A
O167       Eu201   2.483       .  S
O168        C176   1.286       .  A
O168       Eu200   2.428       .  S
O169        C175   1.288       .  A
O169       Eu171   2.441   1_556  S
O170        C174   1.292   1_554  A
O170       Eu171   2.464       .  S
Eu171       O181   2.357   1_554  S
Eu171       O173   2.340       .  S
Eu171       O172   2.357   1_554  S
Eu171       O179   2.353       .  S
O172       Eu201   2.350       .  S
O172       Eu198   2.343   1_556  S
O173       Eu199   2.349   1_554  S
O173       Eu200   2.352       .  S
C174        C467   1.468       .  S
C175        C448   1.475       .  S
C176        C368   1.469       .  S
C177        C384   1.475       .  S
H178        O179   0.966       .  S
O179       Eu200   2.353       .  S
O179       Eu198   2.356       .  S
H180        O181   0.966       .  S
O181       Eu199   2.345       .  S
O181       Eu201   2.362       .  S
O182        C205   1.295       .  A
O182       Eu198   2.481       .  S
O183        C206   1.287       .  A
O183       Eu199   2.433       .  S
O184        C207   1.296       .  A
O184       Eu200   2.490       .  S
O185        C208   1.292       .  A
O185       Eu201   2.462       .  S
O186        C209   1.289       .  A
O186       Eu201   2.443       .  S
O187        C210   1.295       .  A
O187       Eu200   2.479       .  S
O188        C211   1.292       .  A
O188       Eu202   2.468       .  S
O189        C212   1.289       .  A
O189       Eu202   2.444   1_556  S
O190        C211   1.287       .  A
O190       Eu200   2.435       .  S
O191        C212   1.295       .  A
O191       Eu201   2.483       .  S
O192        C207   1.285       .  A
O192       Eu198   2.423       .  S
O193        C210   1.290       .  A
O193       Eu199   2.453   1_554  S
O194        C209   1.293       .  A
O194       Eu199   2.469       .  S
O195        C208   1.286       .  A
O195       Eu198   2.433   1_556  S
O196        C205   1.289       .  A
O196       Eu202   2.442       .  S
O197        C206   1.293       .  A
O197       Eu202   2.471   1_556  S
Eu198       O216   2.353   1_554  S
Eu198       O204   2.352       .  S
Eu199       O203   2.344       .  S
Eu199       O214   2.354   1_556  S
Eu200       O214   2.356       .  S
Eu200       O204   2.344       .  S
Eu201       O203   2.355       .  S
Eu201       O216   2.354       .  S
Eu202       O203   2.350   1_554  S
Eu202       O214   2.343       .  S
Eu202       O216   2.365   1_554  S
Eu202       O204   2.349       .  S
C205        C416   1.476       .  S
C206        C435   1.470       .  S
C207        C240   1.474       .  S
C208        C259   1.467       .  S
C209        C275   1.472       .  S
C210        C227   1.479       .  S
C211        C355   1.470       .  S
C212        C403   1.477       .  S
H213        O214   0.966       .  S
H215        O216   0.966       .  S
C217        S223   1.706       .  A
C217        C222   1.387       .  A
C217        C218   1.403       .  A
C218        C219   1.403       .  A
C218        H229   1.083       .  S
C219        C228   1.374       .  A
C219        C220   1.387       .  A
C220        S226   1.707       .  A
C220        C221   1.404       .  A
C221        C222   1.404       .  A
C221        H230   1.083       .  S
C222        C225   1.374       .  A
S223        C224   1.726       .  A
C224        C225   1.389       .  A
C225        H231   1.083       .  S
S226        C227   1.727       .  A
C227        C228   1.388       .  A
C228        H232   1.083       .  S
C233        S239   1.700       .  A
C233        C238   1.387       .  A
C233        C234   1.402       .  A
C234        C235   1.401       .  A
C234        H245   1.083       .  S
C235        C244   1.375       .  A
C235        C236   1.387       .  A
C236        S242   1.700       .  A
C236        C237   1.402       .  A
C237        C238   1.400       .  A
C237        H246   1.083       .  S
C238        C241   1.374       .  A
S239        C240   1.727       .  A
C240        C241   1.386       .  A
C241        H247   1.083       .  S
S242        C243   1.727       .  A
C243        C244   1.386       .  A
C244        H248   1.083       .  S
C249        S255   1.700       .  A
C249        C254   1.387       .  A
C249        C250   1.399       .  A
C250        C251   1.399       .  A
C250        H261   1.083       .  S
C251        C260   1.368       .  A
C251        C252   1.387       .  A
C252        S258   1.702       .  A
C252        C253   1.400       .  A
C253        C254   1.401       .  A
C253        H262   1.083       .  S
C254        C257   1.370       .  A
S255        C256   1.723       .  A
C256        C257   1.386       .  A
C257        H263   1.083       .  S
S258        C259   1.724       .  A
C259        C260   1.384       .  A
C260        H264   1.083       .  S
C265        S271   1.704       .  A
C265        C270   1.387       .  A
C265        C266   1.401       .  A
C266        C267   1.401       .  A
C266        H277   1.083       .  S
C267        C276   1.371       .  A
C267        C268   1.387       .  A
C268        S274   1.704       .  A
C268        C269   1.401       .  A
C269        C270   1.401       .  A
C269        H278   1.083       .  S
C270        C273   1.370       .  A
S271        C272   1.725       .  A
C272        C273   1.386       .  A
C273        H279   1.083       .  S
S274        C275   1.725       .  A
C275        C276   1.386       .  A
C276        H280   1.083       .  S
C281        S287   1.705       .  A
C281        C286   1.387       .  A
C281        C282   1.402       .  A
C282        C283   1.402       .  A
C282        H293   1.083       .  S
C283        C292   1.373       .  A
C283        C284   1.387       .  A
C284        S290   1.706       .  A
C284        C285   1.404       .  A
C285        C286   1.404       .  A
C285        H294   1.083       .  S
C286        C289   1.374       .  A
S287        C288   1.725       .  A
C288        C289   1.389       .  A
C289        H295   1.083       .  S
S290        C291   1.726       .  A
C291        C292   1.387       .  A
C292        H296   1.083       .  S
C297        S303   1.705       .  A
C297        C302   1.387       .  A
C297        C298   1.402       .  A
C298        C299   1.402       .  A
C298        H309   1.083       .  S
C299        C308   1.371       .  A
C299        C300   1.387       .  A
C300        S306   1.705       .  A
C300        C301   1.401       .  A
C301        C302   1.401       .  A
C301        H310   1.083       .  S
C302        C305   1.371       .  A
S303        C304   1.725       .  A
C304        C305   1.386       .  A
C305        H311   1.083       .  S
S306        C307   1.725       .  A
C307        C308   1.387       .  A
C308        H312   1.083       .  S
C313        S319   1.699       .  A
C313        C318   1.387       .  A
C313        C314   1.402       .  A
C314        C315   1.400       .  A
C314        H325   1.083       .  S
C315        C324   1.374       .  A
C315        C316   1.387       .  A
C316        S322   1.699       .  A
C316        C317   1.402       .  A
C317        C318   1.400       .  A
C317        H326   1.083       .  S
C318        C321   1.374       .  A
S319        C320   1.727       .  A
C320        C321   1.385       .  A
C321        H327   1.083       .  S
S322        C323   1.727       .  A
C323        C324   1.386       .  A
C324        H328   1.083       .  S
C329        S335   1.702       .  A
C329        C334   1.387       .  A
C329        C330   1.399       .  A
C330        C331   1.400       .  A
C330        H341   1.083       .  S
C331        C340   1.368       .  A
C331        C332   1.387       .  A
C332        S338   1.702       .  A
C332        C333   1.399       .  A
C333        C334   1.400       .  A
C333        H342   1.083       .  S
C334        C337   1.368       .  A
S335        C336   1.724       .  A
C336        C337   1.385       .  A
C337        H343   1.083       .  S
S338        C339   1.723       .  A
C339        C340   1.385       .  A
C340        H344   1.083       .  S
C345        S351   1.703       .  A
C345        C350   1.387       .  A
C345        C346   1.402       .  A
C346        C347   1.402       .  A
C346        H357   1.083       .  S
C347        C356   1.372       .  A
C347        C348   1.387       .  A
C348        S354   1.700       .  A
C348        C349   1.399       .  A
C349        C350   1.399       .  A
C349        H358   1.083       .  S
C350        C353   1.370       .  A
S351        C352   1.727       .  A
C352        C353   1.384       .  A
C353        H359   1.083       .  S
S354        C355   1.724       .  A
C355        C356   1.387       .  A
C356        H360   1.083       .  S
C361        S367   1.699       .  A
C361        C366   1.388       .  A
C361        C362   1.400       .  A
C362        C363   1.399       .  A
C362        H373   1.083       .  S
C363        C372   1.370       .  A
C363        C364   1.388       .  A
C364        S370   1.699       .  A
C364        C365   1.400       .  A
C365        C366   1.399       .  A
C365        H374   1.083       .  S
C366        C369   1.371       .  A
S367        C368   1.724       .  A
C368        C369   1.385       .  A
C369        H375   1.083       .  S
S370        C371   1.725       .  A
C371        C372   1.384       .  A
C372        H376   1.083       .  S
C377        S383   1.703       .  A
C377        C382   1.387       .  A
C377        C378   1.403       .  A
C378        C379   1.402       .  A
C378        H389   1.083       .  S
C379        C388   1.374       .  A
C379        C380   1.387       .  A
C380        S386   1.703       .  A
C380        C381   1.402       .  A
C381        C382   1.401       .  A
C381        H390   1.083       .  S
C382        C385   1.374       .  A
S383        C384   1.726       .  A
C384        C385   1.386       .  A
C385        H391   1.083       .  S
S386        C387   1.726       .  A
C387        C388   1.387       .  A
C388        H392   1.083       .  S
C393        S399   1.704       .  A
C393        C398   1.387       .  A
C393        C394   1.403       .  A
C394        C395   1.402       .  A
C394        H405   1.083       .  S
C395        C404   1.374       .  A
C395        C396   1.387       .  A
C396        S402   1.704       .  A
C396        C397   1.402       .  A
C397        C398   1.402       .  A
C397        H406   1.083       .  S
C398        C401   1.373       .  A
S399        C400   1.726       .  A
C400        C401   1.387       .  A
C401        H407   1.083       .  S
S402        C403   1.726       .  A
C403        C404   1.388       .  A
C404        H408   1.083       .  S
C409        S415   1.703       .  A
C409        C414   1.387   1_554  A
C409        C410   1.403       .  A
C410        C411   1.402       .  A
C410        H421   1.083       .  S
C411        C420   1.374       .  A
C411        C412   1.387   1_554  A
C412        S418   1.704       .  A
C412        C413   1.403       .  A
C413        C414   1.402       .  A
C413        H422   1.083       .  S
C414        C417   1.375       .  A
S415        C416   1.726       .  A
C416        C417   1.387   1_554  A
C417        H423   1.083       .  S
S418        C419   1.726       .  A
C419        C420   1.388   1_556  A
C420        H424   1.083       .  S
C425        S431   1.701       .  A
C425        C430   1.387       .  A
C425        C426   1.401       .  A
C426        C427   1.400       .  A
C426        H437   1.083       .  S
C427        C436   1.371       .  A
C427        C428   1.387       .  A
C428        S434   1.701       .  A
C428        C429   1.400       .  A
C429        C430   1.399       .  A
C429        H438   1.083       .  S
C430        C433   1.370   1_556  A
S431        C432   1.726       .  A
C432        C433   1.385   1_556  A
C433        H439   1.083       .  S
S434        C435   1.725       .  A
C435        C436   1.386       .  A
C436        H440   1.083       .  S
C441        S447   1.704       .  A
C441        C446   1.387   1_556  A
C441        C442   1.403       .  A
C442        C443   1.402       .  A
C442        H453   1.083       .  S
C443        C452   1.374       .  A
C443        C444   1.387   1_556  A
C444        S450   1.703       .  A
C444        C445   1.402       .  A
C445        C446   1.402       .  A
C445        H454   1.083       .  S
C446        C449   1.374       .  A
S447        C448   1.726       .  A
C448        C449   1.387   1_556  A
C449        H455   1.083       .  S
S450        C451   1.725       .  A
C451        C452   1.387   1_554  A
C452        H456   1.083       .  S
C457        S463   1.700       .  A
C457        C462   1.388       .  A
C457        C458   1.401       .  A
C458        C459   1.400       .  A
C458        H469   1.083       .  S
C459        C468   1.370       .  A
C459        C460   1.388   1_554  A
C460        S466   1.699       .  A
C460        C461   1.399       .  A
C461        C462   1.398   1_556  A
C461        H470   1.083       .  S
C462        C465   1.370   1_554  A
S463        C464   1.726       .  A
C464        C465   1.383   1_554  A
C465        H471   1.083       .  S
S466        C467   1.723       .  A
C467        C468   1.385   1_556  A
C468        H472   1.083       .  S
C473        S479   1.700       .  A
C473        C478   1.387       .  A
C473        C474   1.401   1_545  A
C474        C475   1.400       .  A
C474        H485   1.083       .  S
C475        C484   1.372       .  A
C475        C476   1.387   1_565  A
C476        S482   1.700       .  A
C476        C477   1.401       .  A
C477        C478   1.400       .  A
C477        H486   1.083       .  S
C478        C481   1.371       .  A
S479        C480   1.725       .  A
C480        C481   1.385       .  A
C481        H487   1.083       .  S
S482        C483   1.725   1_545  A
C483        C484   1.385       .  A
C484        H488   1.083       .  S
C489        S495   1.702       .  A
C489        C494   1.387       .  A
C489        C490   1.402       .  A
C490        C491   1.401       .  A
C490        H501   1.083       .  S
C491        C500   1.374       .  A
C491        C492   1.387       .  A
C492        S498   1.701   1_565  A
C492        C493   1.402       .  A
C493        C494   1.401       .  A
C493        H502   1.083   1_565  S
C494        C497   1.373       .  A
S495        C496   1.726       .  A
C496        C497   1.386       .  A
C497        H503   1.083   1_565  S
S498        C499   1.726   1_545  A
C499        C500   1.386       .  A
C500        H504   1.083       .  S
C505        S511   1.704   1_545  A
C505        C510   1.387       .  A
C505        C506   1.403       .  A
C506        C507   1.402       .  A
C506        H517   1.083   1_545  S
C507        C516   1.374       .  A
C507        C508   1.387       .  A
C508        S514   1.704       .  A
C508        C509   1.402       .  A
C509        C510   1.402       .  A
C509        H518   1.083       .  S
C510        C513   1.374       .  A
S511        C512   1.727   1_565  A
C512        C513   1.387       .  A
C513        H519   1.083       .  S
S514        C515   1.726       .  A
C515        C516   1.388       .  A
C516        H520   1.083   1_545  S
C521        S527   1.702       .  A
C521        C526   1.387       .  A
C521        C522   1.401       .  A
C522        C523   1.401       .  A
C522        H533   1.083       .  S
C523        C532   1.372       .  A
C523        C524   1.387   1_565  A
C524        S530   1.701       .  A
C524        C525   1.401       .  A
C525        C526   1.400   1_545  A
C525        H534   1.083       .  S
C526        C529   1.371   1_565  A
S527        C528   1.725       .  A
C528        C529   1.386   1_565  A
C529        H535   1.083       .  S
S530        C531   1.725   1_545  A
C531        C532   1.386       .  A
C532        H536   1.083       .  S
C537        S543   1.703       .  A
C537        C542   1.387       .  A
C537        C538   1.403       .  A
C538        C539   1.402       .  A
C538        H549   1.083       .  S
C539        C548   1.374       .  A
C539        C540   1.387       .  A
C540        S546   1.704   1_655  A
C540        C541   1.403       .  A
C541        C542   1.402       .  A
C541        H550   1.083   1_655  S
C542        C545   1.375       .  A
S543        C544   1.727       .  A
C544        C545   1.387       .  A
C545        H551   1.083       .  S
S546        C547   1.726   1_455  A
C547        C548   1.387       .  A
C548        H552   1.083       .  S
C553        S559   1.702       .  A
C553        C558   1.387   1_455  A
C553        C554   1.402       .  A
C554        C555   1.401       .  A
C554        H565   1.083       .  S
C555        C564   1.374       .  A
C555        C556   1.387   1_455  A
C556        S562   1.705       .  A
C556        C557   1.404       .  A
C557        C558   1.403       .  A
C557        H566   1.083       .  S
C558        C561   1.376       .  A
S559        C560   1.726       .  A
C560        C561   1.388   1_455  A
C561        H567   1.083       .  S
S562        C563   1.727       .  A
C563        C564   1.387   1_655  A
C564        H568   1.083       .  S
C569        S575   1.701       .  A
C569        C574   1.387       .  A
C569        C570   1.400   1_455  A
C570        C571   1.400   1_655  A
C570        H581   1.083       .  S
C571        C580   1.371   1_455  A
C571        C572   1.387       .  A
C572        S578   1.700       .  A
C572        C573   1.400       .  A
C573        C574   1.399       .  A
C573        H582   1.083       .  S
C574        C577   1.370       .  A
S575        C576   1.725       .  A
C576        C577   1.385       .  A
C577        H583   1.083       .  S
S578        C579   1.725       .  A
C579        C580   1.385   1_455  A
C580        H584   1.083       .  S
C585        S591   1.701       .  A
C585        C590   1.387   1_655  A
C585        C586   1.400       .  A
C586        C587   1.400   1_655  A
C586        H597   1.083       .  S
C587        C596   1.370       .  A
C587        C588   1.387       .  A
C588        S594   1.701       .  A
C588        C589   1.400       .  A
C589        C590   1.400       .  A
C589        H598   1.083       .  S
C590        C593   1.370       .  A
S591        C592   1.725       .  A
C592        C593   1.385   1_655  A
C593        H599   1.083       .  S
S594        C595   1.725       .  A
C595        C596   1.385       .  A
C596        H600   1.083   1_455  S
