geometry optimzed in LAMMPS
_audit_creation_date              2020-11-30 
_audit_creation_method            'lammps2cif' 
_symmetry_space_group_name_H-M    'P1' 
_symmetry_Int_Tables_number       1 
_symmetry_cell_setting            triclinic 
loop_ 
_symmetry_equiv_pos_as_xyz 
  x,y,z 
_cell_length_a                    37.0668972 
_cell_length_b                    58.98686308840204 
_cell_length_c                    23.81390615868561 
_cell_angle_alpha                 89.53563855412168 
_cell_angle_beta                  89.92254311067704 
_cell_angle_gamma                 90.15930725156414 
loop_ 
_atom_site_label 
_atom_site_type_symbol 
_atom_site_fract_x 
_atom_site_fract_y 
_atom_site_fract_z 
_atom_site_charge 
N1          N  0.48873248  0.47142990  0.01570239    -0.35600
N2          N  0.54827313  0.50361032  0.00049319    -0.56100
N3          N  0.49606239  0.54013454  0.00100885    -0.35600
N4          N  0.43760406  0.50824614  0.02593052    -0.56100
C5          C  0.51762828  0.45817540  0.02727697     0.28000
C6          C  0.45910670  0.46040186  0.03534305     0.28000
C7          C  0.52742174  0.55197581  0.99996460     0.28000
C8          C  0.46991271  0.55453871  0.01806879     0.28000
C9          C  0.56624921  0.48398118  0.99256625     0.36600
C10         C  0.56965013  0.52037795  0.97995978     0.36600
C11         C  0.41382023  0.49085337  0.02323895     0.36600
C12         C  0.41811011  0.52745414  0.02024575     0.36600
C13         C  0.50613899  0.43874507  0.05544462    -0.20800
C14         C  0.46922297  0.44004935  0.05994678    -0.20800
C15         C  0.52114024  0.57410327  0.01645998    -0.20800
C16         C  0.48497476  0.57567118  0.02834729    -0.20800
C17         C  0.59940428  0.48831783  0.96762437    -0.21900
C18         C  0.60144786  0.51136564  0.95926533    -0.21900
C19         C  0.37908052  0.49906221  0.01651443    -0.21900
C20         C  0.38178034  0.52226729  0.01500609    -0.21900
C21         C  0.55362343  0.46230464  0.00921510    -0.17200
C22         C  0.42297006  0.46774594  0.02927837    -0.17200
C23         C  0.43245866  0.54964387  0.02080205    -0.17200
C24         C  0.56128276  0.54374913  0.98193181    -0.17200
H25         H  0.52256543  0.42486518  0.07065799     0.15700
H26         H  0.45179225  0.42748087  0.07934906     0.15700
H27         H  0.54063381  0.58772870  0.01970524     0.15700
H28         H  0.47129393  0.59080043  0.04231642     0.15700
H29         H  0.61987589  0.47614550  0.95617034     0.14000
H30         H  0.62384350  0.52038470  0.94022204     0.13900
H31         H  0.35431745  0.48941126  0.01324358     0.14000
H32         H  0.35955213  0.53396795  0.00999648     0.13900
H33         H  0.48864217  0.48567303  0.98982638     0.27200
H34         H  0.49210415  0.52410164  0.98461814     0.27200
N35         N  0.99354143  0.96896901  0.95956810    -0.35600
N36         N  0.93536868  0.00200065  0.96480597    -0.56100
N37         N  0.98884971  0.03868815  0.95751554    -0.35600
N38         N  0.04704583  0.00564502  0.95288217    -0.56100
C39         C  0.96453519  0.95530590  0.95102751     0.28000
C40         C  0.02316819  0.95726262  0.94317363     0.28000
C41         C  0.95886006  0.05076563  0.97007948     0.28000
C42         C  0.01764728  0.05258225  0.96545227     0.28000
C43         C  0.91494326  0.98298033  0.96833460     0.36600
C44         C  0.91248879  0.01972428  0.96924251     0.36600
C45         C  0.06991702  0.98791234  0.94864289     0.36600
C46         C  0.06766816  0.02461764  0.95309095     0.36600
C47         C  0.97601197  0.93483619  0.92911850    -0.20800
C48         C  0.01277503  0.93604925  0.92429396    -0.20800
C49         C  0.96879744  0.07252308  0.98563977    -0.20800
C50         C  0.00565289  0.07363876  0.98288790    -0.20800
C51         C  0.87899042  0.98867844  0.97559576    -0.21900
C52         C  0.87738786  0.01189077  0.97555976    -0.21900
C53         C  0.10524485  0.99567821  0.94644398    -0.21900
C54         C  0.10380356  0.01887798  0.94888559    -0.21900
C55         C  0.92779271  0.96057490  0.96185426    -0.17200
C56         C  0.05955594  0.96487170  0.94436547    -0.17200
C57         C  0.05465212  0.04705445  0.95817819    -0.17200
C58         C  0.92260743  0.04288518  0.96955529    -0.17200
H59         H  0.95959332  0.92058556  0.91640509     0.15700
H60         H  0.02980678  0.92288877  0.90735945     0.15700
H61         H  0.95142242  0.08610950  0.99939726     0.15700
H62         H  0.02176703  0.08824878  0.99400094     0.15700
H63         H  0.85610940  0.97735697  0.97977709     0.14000
H64         H  0.85305830  0.02179577  0.98023301     0.13900
H65         H  0.12962298  0.98574519  0.94285484     0.14000
H66         H  0.12685229  0.03017192  0.94783901     0.13900
H67         H  0.99344986  0.98453803  0.97974150     0.27200
H68         H  0.98933569  0.02253383  0.94052889     0.27200
O69         O  0.26521942  0.23486246  0.83524900    -0.77400
C70         C  0.19485469  0.20030785  0.95835797     0.83600
O71         O  0.17994225  0.29205353  0.88401202    -0.78600
O72         O  0.19146059  0.25844512  0.07124673    -0.80000
O73         O  0.31755922  0.24932516  0.01379717    -0.79800
O74         O  0.31134797  0.25321111  0.87434751    -0.78500
Zn75       Zn  0.22288998  0.24039852  0.88809331     1.55700
O76         O  0.27413898  0.23394359  0.06679130    -0.79900
Cd77       Cd  0.29047863  0.26471714  0.94844897     1.59700
Cd78       Cd  0.21302043  0.28899700  0.95421777     1.59600
O79         O  0.30197498  0.29877056  0.95227151    -0.79800
O80         O  0.23785343  0.25857182  0.95228244    -1.90400
Cd81       Cd  0.22738369  0.24076176  0.02205332     1.59900
O82         O  0.24918512  0.31652193  0.95836363    -0.79800
O83         O  0.20348267  0.20983327  0.00422391    -0.78500
C84         C  0.17103129  0.27748332  0.84716775     0.84100
C85         C  0.29808542  0.24141015  0.83498403     0.83700
O86         O  0.20082391  0.20986623  0.91096200    -0.77400
C87         C  0.30732843  0.23821497  0.05700479     0.84500
O88         O  0.18494233  0.25773923  0.84579415    -0.77500
C89         C  0.28362523  0.31684698  0.95667813     0.84700
C90         C  0.17489128  0.27728143  0.06596693     0.85000
O91         O  0.18005886  0.29057258  0.02427316    -0.79900
O92         O  0.74770633  0.19929521  0.89117269    -0.77400
C93         C  0.64299828  0.22794019  0.85178009     0.83600
O94         O  0.76771646  0.28071855  0.88425997    -0.78600
O95         O  0.64800024  0.28033272  0.97925954    -0.80000
O96         O  0.69811653  0.21417875  0.07141241    -0.79800
O97         O  0.76076517  0.19648945  0.98211743    -0.78500
Zn98       Zn  0.72307703  0.22978828  0.88214584     1.55700
O99         O  0.64637702  0.22847269  0.03922188    -0.79900
Cd100      Cd  0.73676568  0.22492859  0.01470889     1.59700
Cd101      Cd  0.73742509  0.27512430  0.95648706     1.59600
O102        O  0.77544511  0.24264458  0.05857555    -0.79800
O103        O  0.71489102  0.24407464  0.95438273    -1.90400
Cd104      Cd  0.66196338  0.24669345  0.96824787     1.59900
O105        O  0.77287081  0.27778670  0.02356205    -0.79800
O106        O  0.63312966  0.23517059  0.89965978    -0.78500
C107        C  0.77294876  0.26814801  0.84174781     0.84100
C108        C  0.76197273  0.18875185  0.93239308     0.83700
O109        O  0.67623696  0.22547378  0.83920114    -0.77400
C110        C  0.66414279  0.21688601  0.07516755     0.84500
O111        O  0.75712502  0.24906339  0.83646822    -0.77500
C112        C  0.78563488  0.26329591  0.05811530     0.84700
C113        C  0.66476842  0.29918571  0.97553032     0.85000
O114        O  0.69855375  0.30028405  0.96531053    -0.79900
O115        O  0.73520564  0.69223966  0.03356658    -0.77400
C116        C  0.82920740  0.72020036  0.10964803     0.83600
O117        O  0.70820989  0.77240315  0.04691385    -0.78600
O118        O  0.83355700  0.77984149  0.00085259    -0.80000
O119        O  0.81310319  0.71618572  0.87570932    -0.79800
O120        O  0.74336138  0.68776110  0.94175199    -0.78500
Zn121      Zn  0.75525356  0.72262203  0.05376879     1.55700
O122        O  0.85300808  0.73423789  0.92949423    -0.79900
Cd123      Cd  0.76481568  0.71962533  0.92030809     1.59700
Cd124      Cd  0.74498682  0.76892707  0.98014352     1.59600
O125        O  0.72912956  0.73560061  0.86643762    -0.79800
O126        O  0.77181144  0.73918429  0.98822143    -1.90400
Cd127      Cd  0.82436726  0.74545334  0.99771862     1.59900
O128        O  0.71739180  0.76960400  0.90314346    -0.79800
O129        O  0.84536460  0.73063860  0.06984564    -0.78500
C130        C  0.70089862  0.75888438  0.08765383     0.84100
C131        C  0.73252158  0.68036963  0.98945722     0.83700
O132        O  0.79536247  0.71666477  0.10859136    -0.77400
C133        C  0.84500933  0.72344678  0.88517384     0.84500
O134        O  0.71663115  0.73987248  0.09337452    -0.77500
C135        C  0.71389807  0.75494487  0.86416554     0.84700
C136        C  0.81473853  0.79757488  0.99257315     0.85000
O137        O  0.78087616  0.79659775  0.98262561    -0.79900
O138        O  0.23472710  0.81479176  0.94601097    -0.77400
C139        C  0.33121665  0.78808208  0.85838176     0.83600
O140        O  0.21629767  0.73426546  0.93173582    -0.78600
O141        O  0.34003523  0.72842271  0.96674284    -0.80000
O142        O  0.32392392  0.79340013  0.09168402    -0.79800
O143        O  0.24765007  0.81760419  0.03713899    -0.78500
Zn144      Zn  0.25854645  0.78547299  0.92084006     1.55700
O145        O  0.36223557  0.77399184  0.03819532    -0.79900
Cd146      Cd  0.27416231  0.78748028  0.05434924     1.59700
Cd147      Cd  0.25274186  0.73923916  0.99630881     1.59600
O148        O  0.24342605  0.77032321  0.11363812    -0.79800
O149        O  0.27868296  0.76893482  0.98485339    -1.90400
Cd150      Cd  0.33098385  0.76281748  0.97162759     1.59900
O151        O  0.22587437  0.73814935  0.07308340    -0.79800
O152        O  0.34832432  0.77738852  0.89672362    -0.78500
C153        C  0.20761380  0.74649854  0.88956820     0.84100
C154        C  0.23282359  0.82527770  0.99263747     0.83700
O155        O  0.29763389  0.79242159  0.86290047    -0.77400
C156        C  0.35544371  0.78581269  0.08147534     0.84500
O157        O  0.22108507  0.76619020  0.88147305    -0.77500
C158        C  0.22608642  0.75164889  0.11470122     0.84700
C159        C  0.32142737  0.71085650  0.97861605     0.85000
O160        O  0.28837020  0.71204759  0.99327948    -0.79900
C161        C  0.96259481  0.26987926  0.39988772     0.03300
C162        C  0.00006547  0.27172036  0.40968557     0.03300
C163        C  0.01284940  0.27246137  0.46490107    -0.17200
C164        C  0.98941435  0.27098981  0.51123613     0.03300
C165        C  0.95203310  0.26827906  0.50148376     0.03300
C166        C  0.93916873  0.26798949  0.44617263    -0.17200
H167        H  0.91058586  0.26526494  0.43920194     0.05300
H168        H  0.04175820  0.27302999  0.47165865     0.05300
C169        C  0.01613187  0.69880426  0.43569821     0.03300
C170        C  0.05248530  0.70610044  0.43792365     0.03300
C171        C  0.06834840  0.71036626  0.49064022    -0.17200
C172        C  0.04857324  0.70768084  0.54087025     0.03300
C173        C  0.01266872  0.69965795  0.53807101     0.03300
C174        C  0.99728768  0.69478487  0.48598670    -0.17200
H175        H  0.96986027  0.68837999  0.48471488     0.05300
H176        H  0.09541159  0.71726888  0.49246578     0.05300
C177        C  0.55670973  0.81862308  0.42863220     0.03300
C178        C  0.51854857  0.81866258  0.42796164     0.03300
C179        C  0.49948702  0.81816599  0.47905015    -0.17200
C180        C  0.51746277  0.81729798  0.53108623     0.03300
C181        C  0.55575434  0.81736899  0.53175603     0.03300
C182        C  0.57473465  0.81849344  0.48044911    -0.17200
H183        H  0.60397607  0.81871340  0.48070553     0.05300
H184        H  0.47030508  0.81898406  0.47804659     0.05300
C185        C  0.48708700  0.17444513  0.40244491     0.03300
C186        C  0.44907175  0.17627780  0.40528951     0.03300
C187        C  0.43228201  0.17781362  0.45779374    -0.17200
C188        C  0.45242081  0.17866228  0.50761519     0.03300
C189        C  0.49024725  0.17615181  0.50510279     0.03300
C190        C  0.50691406  0.17331805  0.45279580    -0.17200
H191        H  0.53591990  0.17112204  0.45139229     0.05300
H192        H  0.40313655  0.17928523  0.45978982     0.05300
C193        C  0.45097481  0.80579876  0.30932757     0.19700
C194        C  0.43742694  0.78522417  0.28894074    -0.18300
C195        C  0.41662127  0.78473810  0.24005553    -0.10600
C196        C  0.40817174  0.80494473  0.21140545     0.22000
C197        C  0.42152554  0.82556519  0.23181404    -0.20000
C198        C  0.44322403  0.82599269  0.27994381    -0.10800
C199        C  0.38257416  0.80478396  0.16368878    -0.15000
C200        C  0.38464140  0.78931335  0.12270001    -0.28800
C201        C  0.47102546  0.80574040  0.36318364    -0.03100
C202        C  0.49812066  0.82019584  0.37443280    -0.39600
H203        H  0.44273534  0.76949491  0.31119874     0.13100
H204        H  0.40590857  0.76866877  0.22590536     0.12800
H205        H  0.41486603  0.84134908  0.21075929     0.12200
H206        H  0.45268182  0.84216995  0.29531688     0.12500
H207        H  0.36102757  0.81723547  0.16327639     0.15200
H208        H  0.40762964  0.77792914  0.12127795     0.14000
H209        H  0.46463603  0.79246546  0.39357542     0.11600
H210        H  0.50735934  0.83207391  0.34239283     0.13700
C211        C  0.40504649  0.79644111  0.74467895     0.19700
C212        C  0.44242324  0.80030149  0.74591331    -0.18300
C213        C  0.46196574  0.80356659  0.69615291    -0.10600
C214        C  0.44452468  0.80285358  0.64370757     0.22000
C215        C  0.40722105  0.79866394  0.64240668    -0.20000
C216        C  0.38760434  0.79560961  0.69224898    -0.10800
C217        C  0.46469966  0.80496706  0.58971877    -0.15000
C218        C  0.49618038  0.81632987  0.58446453    -0.28800
C219        C  0.38577897  0.79167439  0.79845935    -0.03100
C220        C  0.35014584  0.79500205  0.80609250    -0.39600
H221        H  0.45665342  0.80058230  0.78561010     0.13100
H222        H  0.49085571  0.80590347  0.69902440     0.12800
H223        H  0.39322855  0.79760358  0.60259879     0.12200
H224        H  0.35907588  0.79189678  0.68937141     0.12500
H225        H  0.45319655  0.79668694  0.55330081     0.15200
H226        H  0.50683392  0.82501856  0.62070066     0.14000
H227        H  0.40176223  0.78522160  0.83329132     0.11600
H228        H  0.33407522  0.80253552  0.77280291     0.13700
C229        C  0.16439182  0.72260700  0.22437423     0.19700
C230        C  0.12942524  0.71346740  0.22292318    -0.18300
C231        C  0.11083853  0.70867176  0.27285833    -0.10600
C232        C  0.12721546  0.71263308  0.32521847     0.21200
C233        C  0.16274623  0.72075785  0.32656616    -0.20000
C234        C  0.18110801  0.72585298  0.27673701    -0.10800
C235        C  0.10823105  0.70801052  0.37901802    -0.15000
C236        C  0.07253135  0.71114677  0.38497938    -0.28800
C237        C  0.18319919  0.72826841  0.17093491    -0.03100
C238        C  0.20646578  0.74574506  0.16679009    -0.39600
H239        H  0.11626573  0.71039356  0.18310037     0.13100
H240        H  0.08388102  0.70164218  0.27039091     0.12800
H241        H  0.17612865  0.72351767  0.36635304     0.12200
H242        H  0.20853336  0.73209378  0.27931983     0.12500
H243        H  0.12423773  0.70242339  0.41466246     0.15200
H244        H  0.05721942  0.71736852  0.34925580     0.14000
H245        H  0.17662663  0.71849744  0.13381288     0.11600
H246        H  0.21099742  0.75654316  0.20284378     0.13700
C247        C  0.11522575  0.72046790  0.66149546     0.19700
C248        C  0.14291900  0.70837462  0.68825346    -0.18300
C249        C  0.15971959  0.71708032  0.73608906    -0.10600
C250        C  0.14960982  0.73832863  0.75735182     0.22000
C251        C  0.12216424  0.75052027  0.73030772    -0.20000
C252        C  0.10483436  0.74159892  0.68320232    -0.10800
C253        C  0.16956224  0.74891171  0.80435899    -0.15000
C254        C  0.18279433  0.73676463  0.84763845    -0.28800
C255        C  0.09921957  0.71150712  0.60897162    -0.03100
C256        C  0.06447329  0.71494165  0.59526098    -0.39600
H257        H  0.15172726  0.69222996  0.67185125     0.13100
H258        H  0.18153740  0.70757844  0.75507995     0.12800
H259        H  0.11436471  0.76708026  0.74538212     0.12200
H260        H  0.08425046  0.75163960  0.66263156     0.12500
H261        H  0.17383968  0.76714212  0.80278757     0.15200
H262        H  0.17655068  0.71880091  0.85111369     0.14000
H263        H  0.11619940  0.70143600  0.58160936     0.11600
H264        H  0.04704588  0.72320228  0.62535269     0.13700
C265        C  0.62420435  0.79714389  0.64505818     0.19700
C266        C  0.64658007  0.77803645  0.64848248    -0.18300
C267        C  0.66451804  0.77250744  0.69832065    -0.10600
C268        C  0.66046574  0.78598302  0.74649955     0.22000
C269        C  0.63893056  0.80549369  0.74265847    -0.20000
C270        C  0.62095298  0.81105039  0.69264087    -0.10800
C271        C  0.67946547  0.78075134  0.80037321    -0.15000
C272        C  0.69228275  0.76001327  0.81340561    -0.28800
C273        C  0.60517905  0.80176332  0.59098778    -0.03100
C274        C  0.57619264  0.81536144  0.58561427    -0.39600
H275        H  0.65012539  0.76720939  0.61236324     0.13100
H276        H  0.68198894  0.75787520  0.69821278     0.12800
H277        H  0.63589786  0.81646363  0.77861033     0.12200
H278        H  0.60499462  0.82635065  0.69156309     0.12500
H279        H  0.68300234  0.79442200  0.83019934     0.15200
H280        H  0.68788935  0.74598847  0.78505988     0.14000
H281        H  0.61387647  0.79217627  0.55463755     0.11600
H282        H  0.56578465  0.82389449  0.62217754     0.13700
C283        C  0.59458502  0.79938122  0.28455945     0.19700
C284        C  0.59052760  0.77913248  0.25464285    -0.18300
C285        C  0.61158308  0.77480423  0.20725656    -0.10600
C286        C  0.63732467  0.79070714  0.18840860     0.22000
C287        C  0.64031122  0.81143199  0.21666258    -0.20000
C288        C  0.61930718  0.81573568  0.26446512    -0.10800
C289        C  0.66180742  0.78577303  0.14036883    -0.15000
C290        C  0.67368995  0.76464056  0.13056036    -0.28800
C291        C  0.57194513  0.80264660  0.33559044    -0.03100
C292        C  0.57890480  0.81773605  0.37641850    -0.39600
H293        H  0.57123647  0.76641616  0.26841956     0.13100
H294        H  0.60757134  0.75897998  0.18541409     0.12800
H295        H  0.65954715  0.82410360  0.20248487     0.12200
H296        H  0.62244756  0.83186371  0.28517363     0.12500
H297        H  0.67260657  0.79986019  0.11587456     0.15200
H298        H  0.66528093  0.75089239  0.15826947     0.14000
H299        H  0.54948397  0.79099133  0.34155898     0.11600
H300        H  0.60329458  0.82792461  0.37476916     0.13700
C301        C  0.94969485  0.71206894  0.66257666     0.19700
C302        C  0.94675786  0.73014435  0.70012734    -0.18300
C303        C  0.92116505  0.72961750  0.74318109    -0.10600
C304        C  0.89766677  0.71098104  0.74942000     0.22000
C305        C  0.90014621  0.69303567  0.71135383    -0.20000
C306        C  0.92606971  0.69345098  0.66851416    -0.10800
C307        C  0.86915796  0.71063167  0.79332235    -0.15000
C308        C  0.87399188  0.72053745  0.84337084    -0.28800
C309        C  0.97597747  0.71406798  0.61572253    -0.03100
C310        C  0.98981279  0.69626516  0.58838766    -0.39600
H311        H  0.96417606  0.74484245  0.69585135     0.13100
H312        H  0.91916526  0.74413857  0.77048622     0.12800
H313        H  0.88191481  0.67870283  0.71470969     0.12200
H314        H  0.92668676  0.67952864  0.63926844     0.12500
H315        H  0.84376293  0.70220790  0.78412236     0.15200
H316        H  0.90008870  0.72785460  0.85349415     0.14000
H317        H  0.98442811  0.73102697  0.60304242     0.11600
H318        H  0.98191777  0.67907042  0.59931032     0.13700
C319        C  0.94380005  0.70323914  0.31913785     0.19700
C320        C  0.90615960  0.70530403  0.32008085    -0.18300
C321        C  0.88675759  0.70833976  0.27049173    -0.10600
C322        C  0.90461781  0.70934029  0.21831351     0.22000
C323        C  0.94229009  0.70684551  0.21715712    -0.20000
C324        C  0.96177990  0.70378073  0.26700378    -0.10800
C325        C  0.88514965  0.71490813  0.16535494    -0.15000
C326        C  0.84930092  0.71219550  0.15935528    -0.28800
C327        C  0.96305534  0.70288127  0.37374366    -0.03100
C328        C  0.99728805  0.69592870  0.38098115    -0.39600
H329        H  0.89170764  0.70523466  0.35966834     0.13100
H330        H  0.85799712  0.71092218  0.27392217     0.12800
H331        H  0.95677772  0.70783156  0.17766703     0.12200
H332        H  0.99086504  0.70285832  0.26447486     0.12500
H333        H  0.90076128  0.72191167  0.13062590     0.15200
H334        H  0.83354740  0.70408943  0.19227620     0.14000
H335        H  0.94842924  0.70950076  0.40960036     0.11600
H336        H  0.01245902  0.68932779  0.34579417     0.13700
C337        C  0.55597191  0.18911934  0.28596032     0.19700
C338        C  0.59290788  0.19422800  0.28623931    -0.18300
C339        C  0.61086138  0.19987617  0.23657078    -0.10600
C340        C  0.59213495  0.20062441  0.18523833     0.22000
C341        C  0.55513064  0.19547977  0.18484634    -0.20000
C342        C  0.53715498  0.18966038  0.23468426    -0.10800
C343        C  0.60990507  0.20846313  0.13261520    -0.15000
C344        C  0.64564218  0.20664511  0.12399509    -0.28800
C345        C  0.53764672  0.18571224  0.34066870    -0.03100
C346        C  0.50635057  0.17441105  0.34762912    -0.39600
H347        H  0.60781134  0.19434149  0.32535438     0.13100
H348        H  0.63903927  0.20454780  0.23914253     0.12800
H349        H  0.53998650  0.19633410  0.14601476     0.12200
H350        H  0.50839861  0.18655478  0.23313109     0.12500
H351        H  0.59311611  0.21622677  0.10044178     0.15200
H352        H  0.66237240  0.19778013  0.15436105     0.14000
H353        H  0.55021286  0.19367494  0.37669221     0.11600
H354        H  0.49335646  0.16651589  0.31196016     0.13700
C355        C  0.59372247  0.21031872  0.71551184     0.19700
C356        C  0.60221639  0.19590030  0.67084040    -0.18300
C357        C  0.57661117  0.19090520  0.62960877    -0.10600
C358        C  0.54178957  0.20034255  0.63204194     0.22000
C359        C  0.53361999  0.21527417  0.67578758    -0.20000
C360        C  0.55917777  0.22019031  0.71717962    -0.10800
C361        C  0.51421028  0.19619751  0.58791725    -0.15000
C362        C  0.51406896  0.17779793  0.55485628    -0.28800
C363        C  0.62199609  0.21530100  0.75811182    -0.03100
C364        C  0.61460790  0.22263014  0.81028277    -0.39600
H365        H  0.62882587  0.18845214  0.66780806     0.13100
H366        H  0.58461011  0.18010780  0.59532523     0.12800
H367        H  0.50732999  0.22320866  0.67789734     0.12200
H368        H  0.55191600  0.23209540  0.74953963     0.12500
H369        H  0.49370718  0.20909728  0.58152063     0.15200
H370        H  0.53459382  0.16487214  0.55978593     0.14000
H371        H  0.64991639  0.21226067  0.74644702     0.11600
H372        H  0.58685455  0.22478801  0.82365276     0.13700
C373        C  0.89767689  0.27217717  0.27321414     0.19700
C374        C  0.87024967  0.28704760  0.25616499    -0.18300
C375        C  0.84961672  0.28252423  0.20850680    -0.10600
C376        C  0.85590173  0.26286359  0.17700638     0.22000
C377        C  0.88365265  0.24813773  0.19353870    -0.20000
C378        C  0.90447072  0.25273902  0.24102327    -0.10800
C379        C  0.83176532  0.25608716  0.13043500    -0.15000
C380        C  0.81242035  0.27091807  0.09968453    -0.28800
C381        C  0.91598373  0.27638871  0.32750813    -0.03100
C382        C  0.94769325  0.26710393  0.34246524    -0.39600
H383        H  0.86412183  0.30194521  0.28068769     0.13100
H384        H  0.82775694  0.29391484  0.19812073     0.12800
H385        H  0.88865702  0.23272191  0.17039194     0.12200
H386        H  0.92463000  0.24049863  0.25355981     0.12500
H387        H  0.82961489  0.23808526  0.12153711     0.15200
H388        H  0.81604627  0.28903259  0.10512318     0.14000
H389        H  0.90253125  0.28759690  0.35684110     0.11600
H390        H  0.96311118  0.25737087  0.31242129     0.13700
C391        C  0.89460111  0.27248846  0.63635661     0.19700
C392        C  0.88267619  0.29065362  0.66914743    -0.18300
C393        C  0.85497303  0.28758162  0.70855855    -0.10600
C394        C  0.83901273  0.26608177  0.71635580     0.22000
C395        C  0.85156383  0.24787475  0.68425448    -0.20000
C396        C  0.87914504  0.25094839  0.64503758    -0.10800
C397        C  0.80944618  0.26149895  0.75715770    -0.15000
C398        C  0.79933934  0.27550834  0.79868246    -0.28800
C399        C  0.92306685  0.27642922  0.59342253    -0.03100
C400        C  0.92541368  0.26385690  0.54674350    -0.39600
H401        H  0.89433806  0.30737532  0.66343919     0.13100
H402        H  0.84599530  0.30215214  0.73188565     0.12800
H403        H  0.84011710  0.23107889  0.68977253     0.12200
H404        H  0.88847979  0.23633857  0.62206355     0.12500
H405        H  0.79655866  0.24496146  0.75458561     0.15200
H406        H  0.81226720  0.29184222  0.80408490     0.14000
H407        H  0.94108113  0.29083018  0.59849904     0.11600
H408        H  0.90494447  0.25112958  0.53836014     0.13700
C409        C  0.34102559  0.21383484  0.70570396     0.19700
C410        C  0.34723859  0.19130328  0.68999447    -0.18300
C411        C  0.37094778  0.18641538  0.64592633    -0.10600
C412        C  0.38802343  0.20409386  0.61613632     0.22000
C413        C  0.38138109  0.22658633  0.63128864    -0.20000
C414        C  0.35838048  0.23144709  0.67596351    -0.10800
C415        C  0.40988875  0.19974894  0.56559180    -0.15000
C416        C  0.43303948  0.18237997  0.56113311    -0.28800
C417        C  0.31581812  0.21878171  0.75232088    -0.03100
C418        C  0.32207718  0.23588037  0.78785614    -0.39600
H419        H  0.33384133  0.17750686  0.71198854     0.13100
H420        H  0.37496097  0.16893475  0.63392287     0.12800
H421        H  0.39384458  0.24043757  0.60816730     0.12200
H422        H  0.35342897  0.24901862  0.68616726     0.12500
H423        H  0.40753196  0.21175238  0.53088353     0.15200
H424        H  0.43861739  0.17146150  0.59701097     0.14000
H425        H  0.29287105  0.20758664  0.75918932     0.11600
H426        H  0.34674240  0.24576345  0.78382147     0.13700
C427        C  0.40450757  0.19688257  0.26778236     0.19700
C428        C  0.41693785  0.20640172  0.21720956    -0.18300
C429        C  0.39277325  0.21220043  0.17447820    -0.10600
C430        C  0.35536460  0.20900191  0.18199447     0.22000
C431        C  0.34309341  0.19891429  0.23208083    -0.20000
C432        C  0.36728453  0.19299427  0.27464388    -0.10800
C433        C  0.32812750  0.21624748  0.13967165    -0.15000
C434        C  0.33531020  0.23045585  0.09659064    -0.28800
C435        C  0.43069420  0.19286367  0.31384156    -0.03100
C436        C  0.42537381  0.17758527  0.35525455    -0.39600
H437        H  0.44548883  0.20950642  0.21088674     0.13100
H438        H  0.40377989  0.21920623  0.13606891     0.12800
H439        H  0.31451061  0.19617849  0.23901979     0.12200
H440        H  0.35646913  0.18624071  0.31353165     0.12500
H441        H  0.30057724  0.21031475  0.14557675     0.15200
H442        H  0.36227037  0.23706296  0.08986986     0.14000
H443        H  0.45481512  0.20336395  0.31435104     0.11600
H444        H  0.40106245  0.16730476  0.35594077     0.13700
C445        C  0.05502788  0.27879248  0.63578564     0.19700
C446        C  0.08178939  0.29484618  0.64849815    -0.18300
C447        C  0.10432329  0.29184416  0.69490465    -0.10600
C448        C  0.10061625  0.27258193  0.72949193     0.22000
C449        C  0.07371574  0.25661363  0.71723627    -0.20000
C450        C  0.05100394  0.25967151  0.67103051    -0.10800
C451        C  0.12639209  0.26759041  0.77531978    -0.15000
C452        C  0.14392410  0.28365481  0.80447889    -0.28800
C453        C  0.03448335  0.28169142  0.58274388    -0.03100
C454        C  0.00516088  0.26949186  0.56851822    -0.39600
H455        H  0.08589726  0.30952221  0.62156785     0.13100
H456        H  0.12551280  0.30412807  0.70216404     0.12800
H457        H  0.07072164  0.24148169  0.74293827     0.12200
H458        H  0.03146526  0.24655695  0.66220901     0.12500
H459        H  0.13078872  0.24984301  0.78586909     0.15200
H460        H  0.13788357  0.30147270  0.79778997     0.14000
H461        H  0.04460610  0.29429882  0.55309082     0.11600
H462        H  0.99260749  0.25804464  0.59854967     0.13700
C463        C  0.05458538  0.27913587  0.27293324     0.19700
C464        C  0.06541811  0.29752767  0.23920134    -0.18300
C465        C  0.09264922  0.29487393  0.19894582    -0.10600
C466        C  0.10905107  0.27357252  0.19130303     0.22000
C467        C  0.09747195  0.25516908  0.22434803    -0.20000
C468        C  0.07045970  0.25783559  0.26436310    -0.10800
C469        C  0.13817959  0.26936681  0.14986383    -0.15000
C470        C  0.14801613  0.28379923  0.10858383    -0.28800
C471        C  0.02668071  0.28223193  0.31680042    -0.03100
C472        C  0.02746342  0.27008078  0.36472789    -0.39600
H473        H  0.05333911  0.31405648  0.24484927     0.13100
H474        H  0.10087620  0.30959818  0.17485326     0.12800
H475        H  0.10926617  0.23853480  0.21902244     0.12200
H476        H  0.06183411  0.24308925  0.28821974     0.12500
H477        H  0.15121925  0.25289499  0.15209826     0.15200
H478        H  0.13500924  0.30011274  0.10357378     0.14000
H479        H  0.00602750  0.29504211  0.31057299     0.11600
H480        H  0.05047854  0.25924346  0.37340330     0.13700
C481        C  0.81886148  0.13454699  0.95472925     0.19700
C482        C  0.82744191  0.12120606  0.00191221    -0.18300
C483        C  0.84962810  0.10220828  0.99697383    -0.10600
C484        C  0.86383328  0.09609676  0.94443812     0.22000
C485        C  0.85533642  0.10943295  0.89723367    -0.20000
C486        C  0.83307094  0.12842726  0.90213770    -0.10800
C487        C  0.88985940  0.07716845  0.93806117    -0.15000
C488        C  0.89338764  0.06003491  0.97533409    -0.28800
C489        C  0.79706734  0.15538827  0.96319052    -0.03100
C490        C  0.78105663  0.16725780  0.92159963    -0.39600
H491        H  0.81738246  0.12571100  0.04306776     0.13100
H492        H  0.85648720  0.09290158  0.03475466     0.12800
H493        H  0.86643755  0.10533283  0.85646183     0.12200
H494        H  0.82814690  0.13853242  0.86490355     0.12500
H495        H  0.90747752  0.07749021  0.90150274     0.15200
H496        H  0.87467072  0.05819806  0.01012648     0.14000
H497        H  0.79421869  0.16128036  0.00610288     0.11600
H498        H  0.78215143  0.16145586  0.87856774     0.13700
C499        C  0.10410872  0.10359500  0.92199961     0.19700
C500        C  0.12597810  0.10966525  0.96783964    -0.18300
C501        C  0.14615032  0.12984337  0.96651495    -0.10600
C502        C  0.14471433  0.14452957  0.91950178     0.22000
C503        C  0.12363073  0.13806085  0.87337929    -0.20000
C504        C  0.10347756  0.11797844  0.87475317    -0.10800
C505        C  0.16446561  0.16667021  0.91651065    -0.15000
C506        C  0.17726617  0.17769972  0.96171627    -0.28800
C507        C  0.07980409  0.08338095  0.92253712    -0.03100
C508        C  0.08172510  0.06593428  0.95933733    -0.39600
H509        H  0.12702270  0.09925890  0.00537012     0.13100
H510        H  0.16273487  0.13374377  0.00246510     0.12800
H511        H  0.12213113  0.14883955  0.83641263     0.12200
H512        H  0.08691713  0.11379800  0.83882146     0.12500
H513        H  0.16699225  0.17476527  0.87552219     0.15200
H514        H  0.17366693  0.17052152  0.00339088     0.14000
H515        H  0.05871907  0.08284504  0.89085485     0.11600
H516        H  0.10364885  0.06485718  0.98932561     0.13700
C517        C  0.11916712  0.91164503  0.96627072     0.19700
C518        C  0.12717348  0.89832711  0.01367467    -0.18300
C519        C  0.15175972  0.88046173  0.01037848    -0.10600
C520        C  0.16887700  0.87537272  0.95921473     0.22000
C521        C  0.16047832  0.88848922  0.91151638    -0.20000
C522        C  0.13602553  0.90651420  0.91493243    -0.10800
C523        C  0.19351629  0.85559638  0.95345953    -0.15000
C524        C  0.21187567  0.84651193  0.99691302    -0.28800
C525        C  0.09146549  0.92969482  0.97158418    -0.03100
C526        C  0.08867071  0.94769198  0.93673435    -0.39600
H527        H  0.11407521  0.90163995  0.05346189     0.13100
H528        H  0.15630821  0.87028660  0.04765810     0.12800
H529        H  0.17269455  0.88466477  0.87135448     0.12200
H530        H  0.12968011  0.91590945  0.87703862     0.12500
H531        H  0.19634663  0.84817129  0.91207571     0.15200
H532        H  0.21070572  0.85438855  0.03788899     0.14000
H533        H  0.07268545  0.92836874  0.00659720     0.11600
H534        H  0.10857053  0.95053334  0.90395459     0.13700
C535        C  0.84035915  0.86142519  0.98758878     0.19700
C536        C  0.82960259  0.88043750  0.95594889    -0.18300
C537        C  0.84972124  0.90064544  0.95706064    -0.10600
C538        C  0.88101135  0.90230732  0.99046440     0.22000
C539        C  0.89104064  0.88345991  0.02317359    -0.20000
C540        C  0.87101199  0.86337928  0.02207747    -0.10800
C541        C  0.90474008  0.92281282  0.99221223    -0.15000
C542        C  0.90058706  0.94173280  0.96073460    -0.28800
C543        C  0.81912901  0.83989002  0.98444956    -0.03100
C544        C  0.83408705  0.81951156  0.99503973    -0.39600
H545        H  0.80587372  0.87953469  0.92954999     0.13100
H546        H  0.84060848  0.91468039  0.93143397     0.12800
H547        H  0.91472326  0.88420164  0.04972350     0.12200
H548        H  0.87955097  0.84954959  0.04896018     0.12500
H549        H  0.92807955  0.92201329  0.01978673     0.15200
H550        H  0.87726258  0.94382414  0.93388944     0.14000
H551        H  0.79112326  0.84074819  0.97120249     0.11600
H552        H  0.86263067  0.81848816  0.00470151     0.13700
C553        C  0.59447597  0.40270162  0.98425746     0.19700
C554        C  0.57799979  0.38191615  0.97190291    -0.18300
C555        C  0.59796421  0.36191518  0.97073830    -0.10600
C556        C  0.63521694  0.36211380  0.98217056     0.22000
C557        C  0.65190532  0.38296948  0.99401695    -0.20000
C558        C  0.63179793  0.40308746  0.99524965    -0.10800
C559        C  0.65754883  0.34114292  0.97907322    -0.15000
C560        C  0.64343274  0.32009169  0.98266409    -0.28800
C561        C  0.57144493  0.42331442  0.98369730    -0.03100
C562        C  0.57976586  0.44306576  0.00855872    -0.39600
H563        H  0.54939652  0.38113092  0.96275342     0.13100
H564        H  0.58402619  0.34652616  0.95929512     0.12800
H565        H  0.68063572  0.38371127  0.00210804     0.12200
H566        H  0.64574411  0.41881267  0.00368733     0.12500
H567        H  0.68650526  0.34312011  0.97364219     0.15200
H568        H  0.61490727  0.31775817  0.99102344     0.14000
H569        H  0.54515774  0.42183234  0.96380978     0.11600
H570        H  0.60587995  0.44554491  0.02805834     0.13700
C571        C  0.36496910  0.41509963  0.99100967     0.19700
C572        C  0.36691278  0.40021889  0.94545511    -0.18300
C573        C  0.34250128  0.38232293  0.94014331    -0.10600
C574        C  0.31555052  0.37855449  0.98078497     0.22000
C575        C  0.31233615  0.39400687  0.02513615    -0.20000
C576        C  0.33693412  0.41206289  0.03051859    -0.10800
C577        C  0.29165997  0.35816625  0.97811441    -0.15000
C578        C  0.30424714  0.33831099  0.95865296    -0.28800
C579        C  0.39375236  0.43271515  0.99580756    -0.03100
C580        C  0.39324138  0.45054756  0.03077325    -0.39600
H581        H  0.38779900  0.40226592  0.91393257     0.13100
H582        H  0.34500821  0.37131650  0.90421211     0.12800
H583        H  0.29159941  0.39162399  0.05674500     0.12200
H584        H  0.33442768  0.42305997  0.06638752     0.12500
H585        H  0.26461218  0.35902789  0.99558414     0.15200
H586        H  0.33238913  0.33716947  0.94624817     0.14000
H587        H  0.41666972  0.43125225  0.96749431     0.11600
H588        H  0.36996922  0.45369845  0.05716090     0.13700
C589        C  0.34430783  0.64714652  0.98891147     0.19700
C590        C  0.33657894  0.62984747  0.02794963    -0.18300
C591        C  0.35583765  0.60943776  0.02727714    -0.10600
C592        C  0.38310767  0.60590830  0.98697759     0.22000
C593        C  0.38970472  0.62290976  0.94669702    -0.20000
C594        C  0.37055988  0.64322948  0.94745148    -0.10800
C595        C  0.40597131  0.58522759  0.98523206    -0.15000
C596        C  0.40663182  0.56885269  0.02486812    -0.28800
C597        C  0.32468495  0.66905790  0.99215269    -0.03100
C598        C  0.33959867  0.68871674  0.97469072    -0.39600
H599        H  0.31608074  0.63231509  0.05977272     0.13100
H600        H  0.34921366  0.59671135  0.05849816     0.12800
H601        H  0.41013466  0.62058599  0.91468648     0.12200
H602        H  0.37631540  0.65574951  0.91520538     0.12500
H603        H  0.42466240  0.58376017  0.95019459     0.15200
H604        H  0.38804359  0.56887608  0.05998919     0.14000
H605        H  0.29825120  0.66919361  0.01194178     0.11600
H606        H  0.36698684  0.68891217  0.95851502     0.13700
C607        C  0.68828514  0.62210096  0.96072880     0.19700
C608        C  0.66658182  0.61390742  0.91708705    -0.18300
C609        C  0.64523090  0.59450750  0.92491343    -0.10600
C610        C  0.64531805  0.58278811  0.97668137     0.22000
C611        C  0.66877500  0.59013119  0.01901875    -0.20000
C612        C  0.68999922  0.60956846  0.01129024    -0.10800
C613        C  0.62081478  0.56325834  0.98844238    -0.15000
C614        C  0.58841029  0.56101213  0.96365851    -0.28800
C615        C  0.70803542  0.64395178  0.95266185    -0.03100
C616        C  0.71603444  0.65764520  0.99582758    -0.39600
H617        H  0.66533288  0.62292125  0.87732637     0.13100
H618        H  0.62857371  0.58884303  0.89046928     0.12800
H619        H  0.66994608  0.58115961  0.05884980     0.12200
H620        H  0.70755410  0.61472866  0.04513405     0.12500
H621        H  0.62798646  0.55156769  0.02211327     0.15200
H622        H  0.57924188  0.57391544  0.93426643     0.14000
H623        H  0.71358982  0.64970826  0.91004993     0.11600
H624        H  0.70847351  0.65265239  0.03820512     0.13700
loop_ 
_geom_bond_atom_site_label_1 
_geom_bond_atom_site_label_2 
_geom_bond_distance 
_geom_bond_site_symmetry_2 
_ccdc_geom_bond_type 
N1            C6   1.356       .  A
N1            C5   1.355       .  A
N1           H33   1.038   1_554  S
N2            C9   1.352   1_554  A
N2           C10   1.354   1_554  A
N3            C8   1.355       .  A
N3            C7   1.355   1_554  A
N3           H34   1.036   1_554  S
N4           C11   1.353       .  A
N4           C12   1.351       .  A
C5           C13   1.389       .  A
C5           C21   1.421       .  A
C6           C22   1.416       .  A
C6           C14   1.385       .  A
C7           C15   1.386   1_556  A
C7           C24   1.414       .  A
C8           C23   1.419       .  A
C8           C16   1.388       .  A
C9           C21   1.414   1_556  A
C9           C17   1.386       .  A
C10          C24   1.415       .  A
C10          C18   1.386       .  A
C11          C19   1.386       .  A
C11          C22   1.412       .  A
C12          C20   1.386       .  A
C12          C23   1.412       .  A
C13          C14   1.375       .  A
C13          H25   1.082       .  S
C14          H26   1.082       .  S
C15          C16   1.373       .  A
C15          H27   1.083       .  S
C16          H28   1.082       .  S
C17          C18   1.374       .  A
C17          H29   1.082       .  S
C18          H30   1.082       .  S
C19          C20   1.372       .  A
C19          H31   1.082       .  S
C20          H32   1.082       .  S
C21         C562   1.494       .  S
C22         C580   1.496       .  S
C23         C596   1.489       .  S
C24         C614   1.491       .  S
N35          C40   1.357   1_655  A
N35          C39   1.358       .  A
N35          H67   1.040       .  S
N36          C43   1.354   1_545  A
N36          C44   1.353       .  A
N37          C42   1.358   1_655  A
N37          C41   1.356       .  A
N37          H68   1.038       .  S
N38          C45   1.353   1_545  A
N38          C46   1.354       .  A
C39          C47   1.387       .  A
C39          C55   1.421       .  A
C40          C56   1.421       .  A
C40          C48   1.387       .  A
C41          C49   1.388       .  A
C41          C58   1.421       .  A
C42          C57   1.421       .  A
C42          C50   1.387       .  A
C43          C55   1.416       .  A
C43          C51   1.386       .  A
C44          C58   1.416       .  A
C44          C52   1.387       .  A
C45          C53   1.387       .  A
C45          C56   1.416       .  A
C46          C54   1.386       .  A
C46          C57   1.416       .  A
C47          C48   1.369   1_655  A
C47          H59   1.082       .  S
C48          H60   1.082       .  S
C49          C50   1.369   1_655  A
C49          H61   1.082       .  S
C50          H62   1.082       .  S
C51          C52   1.371   1_565  A
C51          H63   1.082       .  S
C52          H64   1.082       .  S
C53          C54   1.371   1_565  A
C53          H65   1.082       .  S
C54          H66   1.082       .  S
C55         C542   1.499       .  S
C56         C526   1.494       .  S
C57         C508   1.497       .  S
C58         C488   1.491       .  S
O69          C85   1.277       .  A
O69         Zn75   2.039       .  S
C70         C506   1.484       .  S
C70          O86   1.276       .  A
C70          O83   1.273   1_556  A
O71          C84   1.276       .  A
O71         Cd78   2.082       .  S
O72          C90   1.276       .  A
O72         Cd81   2.063       .  S
O73          C87   1.272       .  A
O73         Cd77   2.059   1_554  S
O74          C85   1.271       .  A
O74         Cd77   2.047       .  S
Zn75         O86   2.045       .  S
Zn75         O88   2.009       .  S
Zn75         O80   1.954       .  S
O76          C87   1.276       .  A
O76         Cd81   2.074       .  S
Cd77         O79   2.055       .  S
Cd77         O80   1.985       .  S
Cd78         O82   2.106       .  S
Cd78         O91   2.069   1_556  S
Cd78         O80   2.020       .  S
O79          C89   1.271       .  A
O80         Cd81   1.996   1_556  S
Cd81         O83   2.073       .  S
O82          C89   1.277       .  A
C84         C452   1.475       .  S
C84          O88   1.276       .  A
C85         C418   1.470       .  S
C87         C434   1.474       .  S
C89         C578   1.478       .  S
C90         C470   1.475       .  S
C90          O91   1.274       .  A
O92         C108   1.274       .  A
O92         Zn98   2.029       .  S
C93         C364   1.479       .  S
C93         O109   1.277       .  A
C93         O106   1.274       .  A
O94         C107   1.275       .  A
O94        Cd101   2.076       .  S
O95         C113   1.275       .  A
O95        Cd104   2.071       .  S
O96         C110   1.273       .  A
O96        Cd100   2.062       .  S
O97         C108   1.273       .  A
O97        Cd100   2.058   1_556  S
Zn98        O109   2.033       .  S
Zn98        O111   2.009       .  S
Zn98        O103   1.945       .  S
O99         C110   1.276       .  A
O99        Cd104   2.076   1_554  S
Cd100       O102   2.062       .  S
Cd100       O103   1.995   1_554  S
Cd101       O105   2.076   1_556  S
Cd101       O114   2.083       .  S
Cd101       O103   2.012       .  S
O102        C112   1.274       .  A
O103       Cd104   1.996       .  S
Cd104       O106   2.071       .  S
O105        C112   1.274       .  A
C107        C398   1.478       .  S
C107        O111   1.275       .  A
C108        C490   1.478       .  S
C110        C344   1.474       .  S
C112        C380   1.475       .  S
C113        C560   1.478       .  S
C113        O114   1.277       .  A
O115        C131   1.271   1_554  A
O115       Zn121   2.001       .  S
C116        C326   1.475       .  S
C116        O132   1.271       .  A
C116        O129   1.274       .  A
O117        C130   1.279       .  A
O117       Cd124   2.105   1_554  S
O118        C136   1.273   1_554  A
O118       Cd127   2.058   1_554  S
O119        C133   1.278       .  A
O119       Cd123   2.091       .  S
O120        C131   1.277       .  A
O120       Cd123   2.098       .  S
Zn121       O132   2.010       .  S
Zn121       O134   1.999       .  S
Zn121       O126   1.933   1_554  S
O122        C133   1.272       .  A
O122       Cd127   2.055       .  S
Cd123       O125   2.068       .  S
Cd123       O126   2.011       .  S
Cd124       O128   2.101       .  S
Cd124       O137   2.104       .  S
Cd124       O126   2.027       .  S
O125        C135   1.275       .  A
O126       Cd127   1.995       .  S
Cd127       O129   2.074   1_556  S
O128        C135   1.280       .  A
C130        C290   1.477       .  S
C130        O134   1.272       .  A
C131        C616   1.478       .  S
C133        C308   1.475       .  S
C135        C272   1.480       .  S
C136        C544   1.479       .  S
C136        O137   1.279       .  A
O138        C154   1.277       .  A
O138       Zn144   2.038       .  S
C139        C220   1.482       .  S
C139        O155   1.276       .  A
C139        O152   1.276       .  A
O140        C153   1.274       .  A
O140       Cd147   2.070       .  S
O141        C159   1.273       .  A
O141       Cd150   2.062       .  S
O142        C156   1.276       .  A
O142       Cd146   2.079       .  S
O143        C154   1.275   1_554  A
O143       Cd146   2.071       .  S
Zn144       O155   2.038       .  S
Zn144       O157   2.028       .  S
Zn144       O149   1.953       .  S
O145        C156   1.274       .  A
O145       Cd150   2.075   1_554  S
Cd146       O148   2.069       .  S
Cd146       O149   1.998   1_554  S
Cd147       O151   2.081   1_556  S
Cd147       O160   2.082       .  S
Cd147       O149   2.012       .  S
O148        C158   1.274       .  A
O149       Cd150   1.998       .  S
Cd150       O152   2.074       .  S
O151        C158   1.276       .  A
C153        C254   1.477       .  S
C153        O157   1.276       .  A
C154        C524   1.480       .  S
C156        C200   1.477       .  S
C158        C238   1.476       .  S
C159        C598   1.475       .  S
C159        O160   1.276       .  A
C161        C162   1.413   1_655  A
C161        C166   1.406       .  A
C161        C382   1.486       .  S
C162        C163   1.399       .  A
C162        C472   1.479       .  S
C163        C164   1.405   1_455  A
C163        H168   1.084       .  S
C164        C165   1.414       .  A
C164        C454   1.487   1_655  S
C165        C166   1.402       .  A
C165        C400   1.481       .  S
C166        H167   1.084       .  S
C169        C170   1.415       .  A
C169        C174   1.404   1_455  A
C169        C328   1.490   1_455  S
C170        C171   1.411       .  A
C170        C236   1.490       .  S
C171        C172   1.410       .  A
C171        H176   1.083       .  S
C172        C173   1.413       .  A
C172        C256   1.489       .  S
C173        C174   1.397   1_455  A
C173        C310   1.479   1_455  S
C174        H175   1.084       .  S
C177        C178   1.415       .  A
C177        C182   1.404       .  A
C177        C292   1.491       .  S
C178        C179   1.406       .  A
C178        C202   1.486       .  S
C179        C180   1.408       .  A
C179        H184   1.083       .  S
C180        C181   1.419       .  A
C180        C218   1.496       .  S
C181        C182   1.410       .  A
C181        C274   1.495       .  S
C182        H183   1.084       .  S
C185        C186   1.415       .  A
C185        C190   1.408       .  A
C185        C346   1.487       .  S
C186        C187   1.400       .  A
C186        C436   1.483       .  S
C187        C188   1.404       .  A
C187        H192   1.085       .  S
C188        C189   1.412       .  A
C188        C416   1.480       .  S
C189        C190   1.401       .  A
C189        C362   1.482       .  S
C190        H191   1.084       .  S
C193        C194   1.403       .  A
C193        C198   1.407       .  A
C193        C201   1.483       .  S
C194        C195   1.398       .  A
C194        H203   1.083       .  S
C195        C196   1.405       .  A
C195        H204   1.083       .  S
C196        C197   1.403       .  A
C196        C199   1.481       .  S
C197        C198   1.401       .  A
C197        H205   1.083       .  S
C198        H206   1.082       .  S
C199        H207   1.087       .  S
C199        C200   1.344       .  D
C200        H208   1.087       .  S
C201        H209   1.087       .  S
C201        C202   1.344       .  D
C202        H210   1.086       .  S
C211        C212   1.404       .  A
C211        C216   1.408       .  A
C211        C219   1.490       .  S
C212        C213   1.400       .  A
C212        H221   1.083       .  S
C213        C214   1.408       .  A
C213        H222   1.082       .  S
C214        C215   1.404       .  A
C214        C217   1.491       .  S
C215        C216   1.401       .  A
C215        H223   1.083       .  S
C216        H224   1.082       .  S
C217        H225   1.086       .  S
C217        C218   1.349       .  D
C218        H226   1.082       .  S
C219        H227   1.087       .  S
C219        C220   1.348       .  D
C220        H228   1.085       .  S
C229        C230   1.403       .  A
C229        C234   1.407       .  A
C229        C237   1.485       .  S
C230        C231   1.400       .  A
C230        H239   1.083       .  S
C231        C232   1.408       .  A
C231        H240   1.083       .  S
C232        C233   1.401       .  A
C232        C235   1.484       .  S
C233        C234   1.397       .  A
C233        H241   1.083       .  S
C234        H242   1.082       .  S
C235        H243   1.086       .  S
C235        C236   1.344       .  D
C236        H244   1.085       .  S
C237        H245   1.087       .  S
C237        C238   1.345       .  D
C238        H246   1.086       .  S
C247        C248   1.403       .  A
C247        C252   1.408       .  A
C247        C255   1.486       .  S
C248        C249   1.400       .  A
C248        H257   1.083       .  S
C249        C250   1.407       .  A
C249        H258   1.083       .  S
C250        C251   1.402       .  A
C250        C253   1.484       .  S
C251        C252   1.399       .  A
C251        H259   1.083       .  S
C252        H260   1.082       .  S
C253        H261   1.087       .  S
C253        C254   1.344       .  D
C254        H262   1.086       .  S
C255        H263   1.087       .  S
C255        C256   1.345       .  D
C256        H264   1.084       .  S
C265        C266   1.403       .  A
C265        C270   1.409       .  A
C265        C273   1.492       .  S
C266        C267   1.398       .  A
C266        H275   1.084       .  S
C267        C268   1.409       .  A
C267        H276   1.081       .  S
C268        C269   1.405       .  A
C268        C271   1.495       .  S
C269        C270   1.403       .  A
C269        H277   1.083       .  S
C270        H278   1.081       .  S
C271        H279   1.087       .  S
C271        C272   1.348       .  D
C272        H280   1.084       .  S
C273        H281   1.087       .  S
C273        C274   1.348       .  D
C274        H282   1.081       .  S
C283        C284   1.404       .  A
C283        C288   1.409       .  A
C283        C291   1.490       .  S
C284        C285   1.397       .  A
C284        H293   1.084       .  S
C285        C286   1.407       .  A
C285        H294   1.082       .  S
C286        C287   1.404       .  A
C286        C289   1.490       .  S
C287        C288   1.404       .  A
C287        H295   1.083       .  S
C288        H296   1.081       .  S
C289        H297   1.087       .  S
C289        C290   1.345       .  D
C290        H298   1.086       .  S
C291        H299   1.087       .  S
C291        C292   1.348       .  D
C292        H300   1.085       .  S
C301        C302   1.401       .  A
C301        C306   1.409       .  A
C301        C309   1.484       .  S
C302        C303   1.396       .  A
C302        H311   1.084       .  S
C303        C304   1.407       .  A
C303        H312   1.082       .  S
C304        C305   1.402       .  A
C304        C307   1.485       .  S
C305        C306   1.401       .  A
C305        H313   1.083       .  S
C306        H314   1.081       .  S
C307        H315   1.087       .  S
C307        C308   1.344       .  D
C308        H316   1.086       .  S
C309        H317   1.088       .  S
C309        C310   1.343       .  D
C310        H318   1.084       .  S
C319        C320   1.401       .  A
C319        C324   1.408       .  A
C319        C327   1.484       .  S
C320        C321   1.394       .  A
C320        H329   1.084       .  S
C321        C322   1.408       .  A
C321        H330   1.080       .  S
C322        C323   1.405       .  A
C322        C325   1.489       .  S
C323        C324   1.401       .  A
C323        H331   1.083       .  S
C324        H332   1.081       .  S
C325        H333   1.087       .  S
C325        C326   1.346       .  D
C326        H334   1.084       .  S
C327        H335   1.087       .  S
C327        C328   1.345       .  D
C328        H336   1.084   1_655  S
C337        C338   1.401       .  A
C337        C342   1.407       .  A
C337        C345   1.480       .  S
C338        C339   1.394       .  A
C338        H347   1.084       .  S
C339        C340   1.407       .  A
C339        H348   1.081       .  S
C340        C341   1.404       .  A
C340        C343   1.485       .  S
C341        C342   1.400       .  A
C341        H349   1.083       .  S
C342        H350   1.082       .  S
C343        H351   1.087       .  S
C343        C344   1.345       .  D
C344        H352   1.085       .  S
C345        H353   1.086       .  S
C345        C346   1.346       .  D
C346        H354   1.085       .  S
C355        C356   1.403       .  A
C355        C360   1.409       .  A
C355        C363   1.490       .  S
C356        C357   1.399       .  A
C356        H365   1.083       .  S
C357        C358   1.408       .  A
C357        H366   1.081       .  S
C358        C359   1.403       .  A
C358        C361   1.488       .  S
C359        C360   1.400       .  A
C359        H367   1.084       .  S
C360        H368   1.081       .  S
C361        H369   1.087       .  S
C361        C362   1.346       .  D
C362        H370   1.084       .  S
C363        H371   1.087       .  S
C363        C364   1.347       .  D
C364        H372   1.085       .  S
C373        C374   1.403       .  A
C373        C378   1.408       .  A
C373        C381   1.483       .  S
C374        C375   1.397       .  A
C374        H383   1.083       .  S
C375        C376   1.406       .  A
C375        H384   1.082       .  S
C376        C377   1.403       .  A
C376        C379   1.483       .  S
C377        C378   1.398       .  A
C377        H385   1.083       .  S
C378        H386   1.081       .  S
C379        H387   1.087       .  S
C379        C380   1.345       .  D
C380        H388   1.085       .  S
C381        H389   1.087       .  S
C381        C382   1.345       .  D
C382        H390   1.084       .  S
C391        C392   1.403       .  A
C391        C396   1.406       .  A
C391        C399   1.485       .  S
C392        C393   1.401       .  A
C392        H401   1.083       .  S
C393        C394   1.409       .  A
C393        H402   1.080       .  S
C394        C395   1.403       .  A
C394        C397   1.486       .  S
C395        C396   1.394       .  A
C395        H403   1.084       .  S
C396        H404   1.082       .  S
C397        H405   1.087       .  S
C397        C398   1.347       .  D
C398        H406   1.084       .  S
C399        H407   1.087       .  S
C399        C400   1.344       .  D
C400        H408   1.086       .  S
C409        C410   1.403       .  A
C409        C414   1.406       .  A
C409        C417   1.481       .  S
C410        C411   1.400       .  A
C410        H419   1.083       .  S
C411        C412   1.405       .  A
C411        H420   1.083       .  S
C412        C413   1.400       .  A
C412        C415   1.475       .  S
C413        C414   1.395       .  A
C413        H421   1.084       .  S
C414        H422   1.083       .  S
C415        H423   1.088       .  S
C415        C416   1.343       .  D
C416        H424   1.086       .  S
C417        H425   1.087       .  S
C417        C418   1.342       .  D
C418        H426   1.087       .  S
C427        C428   1.401       .  A
C427        C432   1.407       .  A
C427        C435   1.484       .  S
C428        C429   1.398       .  A
C428        H437   1.084       .  S
C429        C430   1.410       .  A
C429        H438   1.080       .  S
C430        C431   1.403       .  A
C430        C433   1.489       .  S
C431        C432   1.397       .  A
C431        H439   1.084       .  S
C432        H440   1.081       .  S
C433        H441   1.087       .  S
C433        C434   1.345       .  D
C434        H442   1.083       .  S
C435        H443   1.086       .  S
C435        C436   1.345       .  D
C436        H444   1.085       .  S
C445        C446   1.404       .  A
C445        C450   1.408       .  A
C445        C453   1.485       .  S
C446        C447   1.397       .  A
C446        H455   1.083       .  S
C447        C448   1.404       .  A
C447        H456   1.082       .  S
C448        C449   1.402       .  A
C448        C451   1.480       .  S
C449        C450   1.397       .  A
C449        H457   1.084       .  S
C450        H458   1.080       .  S
C451        H459   1.087       .  S
C451        C452   1.346       .  D
C452        H460   1.086       .  S
C453        H461   1.087       .  S
C453        C454   1.347       .  D
C454        H462   1.083   1_455  S
C463        C464   1.402       .  A
C463        C468   1.405       .  A
C463        C471   1.482       .  S
C464        C465   1.401       .  A
C464        H473   1.083       .  S
C465        C466   1.410       .  A
C465        H474   1.080       .  S
C466        C467   1.402       .  A
C466        C469   1.484       .  S
C467        C468   1.391       .  A
C467        H475   1.084       .  S
C468        H476   1.082       .  S
C469        H477   1.087       .  S
C469        C470   1.345       .  D
C470        H478   1.083       .  S
C471        H479   1.087       .  S
C471        C472   1.343       .  D
C472        H480   1.086       .  S
C481        C482   1.404   1_556  A
C481        C486   1.408       .  A
C481        C489   1.488       .  S
C482        C483   1.397   1_554  A
C482        H491   1.084       .  S
C483        C484   1.407       .  A
C483        H492   1.081   1_556  S
C484        C485   1.403       .  A
C484        C487   1.486       .  S
C485        C486   1.399       .  A
C485        H493   1.083       .  S
C486        H494   1.080       .  S
C487        H495   1.088       .  S
C487        C488   1.346       .  D
C488        H496   1.084   1_556  S
C489        H497   1.087   1_556  S
C489        C490   1.348       .  D
C490        H498   1.084       .  S
C499        C500   1.409       .  A
C499        C504   1.404       .  A
C499        C507   1.492       .  S
C500        C501   1.404       .  A
C500        H509   1.081   1_556  S
C501        C502   1.411       .  A
C501        H510   1.081   1_556  S
C502        C503   1.404       .  A
C502        C505   1.497       .  S
C503        C504   1.399       .  A
C503        H511   1.083       .  S
C504        H512   1.083       .  S
C505        H513   1.087       .  S
C505        C506   1.348       .  D
C506        H514   1.084   1_556  S
C507        H515   1.088       .  S
C507        C508   1.348       .  D
C508        H516   1.084       .  S
C517        C518   1.403   1_556  A
C517        C522   1.408       .  A
C517        C525   1.487       .  S
C518        C519   1.398       .  A
C518        H527   1.083       .  S
C519        C520   1.408   1_554  A
C519        H528   1.081       .  S
C520        C521   1.405       .  A
C520        C523   1.491       .  S
C521        C522   1.402       .  A
C521        H529   1.083       .  S
C522        H530   1.082       .  S
C523        H531   1.087       .  S
C523        C524   1.348       .  D
C524        H532   1.085   1_556  S
C525        H533   1.088   1_556  S
C525        C526   1.346       .  D
C526        H534   1.085       .  S
C535        C536   1.405       .  A
C535        C540   1.408   1_556  A
C535        C543   1.495       .  S
C536        C537   1.405       .  A
C536        H545   1.083       .  S
C537        C538   1.411       .  A
C537        H546   1.080       .  S
C538        C539   1.404   1_556  A
C538        C541   1.494       .  S
C539        C540   1.397       .  A
C539        H547   1.084       .  S
C540        H548   1.081       .  S
C541        H549   1.088   1_556  S
C541        C542   1.349       .  D
C542        H550   1.083       .  S
C543        H551   1.087       .  S
C543        C544   1.347       .  D
C544        H552   1.085   1_556  S
C553        C554   1.402       .  A
C553        C558   1.408       .  A
C553        C561   1.488       .  S
C554        C555   1.395       .  A
C554        H563   1.084       .  S
C555        C556   1.408       .  A
C555        H564   1.080       .  S
C556        C557   1.406       .  A
C556        C559   1.493       .  S
C557        C558   1.404       .  A
C557        H565   1.083   1_556  S
C558        H566   1.081   1_556  S
C559        H567   1.087       .  S
C559        C560   1.348       .  D
C560        H568   1.084       .  S
C561        H569   1.088       .  S
C561        C562   1.346   1_556  D
C562        H570   1.084       .  S
C571        C572   1.403       .  A
C571        C576   1.411   1_556  A
C571        C579   1.492       .  S
C572        C573   1.395       .  A
C572        H581   1.083       .  S
C573        C574   1.406       .  A
C573        H582   1.082       .  S
C574        C575   1.406   1_556  A
C574        C577   1.493       .  S
C575        C576   1.407       .  A
C575        H583   1.083       .  S
C576        H584   1.081       .  S
C577        H585   1.086       .  S
C577        C578   1.347       .  D
C578        H586   1.086       .  S
C579        H587   1.088       .  S
C579        C580   1.347   1_556  D
C580        H588   1.084       .  S
C589        C590   1.404   1_556  A
C589        C594   1.406       .  A
C589        C597   1.487       .  S
C590        C591   1.402       .  A
C590        H599   1.083       .  S
C591        C592   1.410   1_554  A
C591        H600   1.080       .  S
C592        C593   1.403       .  A
C592        C595   1.488       .  S
C593        C594   1.395       .  A
C593        H601   1.084       .  S
C594        H602   1.082       .  S
C595        H603   1.088       .  S
C595        C596   1.345   1_556  D
C596        H604   1.083       .  S
C597        H605   1.087   1_556  S
C597        C598   1.346       .  D
C598        H606   1.085       .  S
C607        C608   1.403       .  A
C607        C612   1.409   1_556  A
C607        C615   1.491       .  S
C608        C609   1.401       .  A
C608        H617   1.083       .  S
C609        C610   1.409       .  A
C609        H618   1.082       .  S
C610        C611   1.403   1_556  A
C610        C613   1.490       .  S
C611        C612   1.399       .  A
C611        H619   1.083       .  S
C612        H620   1.082       .  S
C613        H621   1.087   1_556  S
C613        C614   1.346       .  D
C614        H622   1.085       .  S
C615        H623   1.087       .  S
C615        C616   1.345       .  D
C616        H624   1.085   1_556  S
