geometry optimzed in LAMMPS
_audit_creation_date              2020-11-30 
_audit_creation_method            'lammps2cif' 
_symmetry_space_group_name_H-M    'P1' 
_symmetry_Int_Tables_number       1 
_symmetry_cell_setting            triclinic 
loop_ 
_symmetry_equiv_pos_as_xyz 
  x,y,z 
_cell_length_a                    44.00777338 
_cell_length_b                    29.393493130528444 
_cell_length_c                    45.07841929458939 
_cell_angle_alpha                 90.27470407468691 
_cell_angle_beta                  90.56724758710988 
_cell_angle_gamma                 90.36512223359686 
loop_ 
_atom_site_label 
_atom_site_type_symbol 
_atom_site_fract_x 
_atom_site_fract_y 
_atom_site_fract_z 
_atom_site_charge 
O1          O  0.18389324  0.43255805  0.31005853    -0.75600
O2          O  0.20868845  0.37932064  0.28260651    -0.54500
C3          C  0.18949547  0.39125565  0.30248252     0.78100
O4          O  0.18109023  0.58166996  0.19236703    -0.60200
O5          O  0.20875294  0.63655948  0.21680466    -0.53200
C6          C  0.18827670  0.62344912  0.19778363     0.70200
O7          O  0.18513430  0.42815885  0.19345347    -0.74700
O8          O  0.21342014  0.37637476  0.21915260    -0.55300
C9          C  0.19330164  0.38722368  0.19973104     0.76200
O10         O  0.18498875  0.58538458  0.31085146    -0.59900
O11         O  0.20703946  0.63859004  0.28198000    -0.53000
C12         C  0.18879091  0.62686118  0.30274971     0.72800
Zr13       Zr  0.19867541  0.50890791  0.29532833     2.54700
O14         O  0.14344849  0.50822532  0.29165673    -0.80500
O15         O  0.19707578  0.50962111  0.34932839    -0.93900
Zr16       Zr  0.19809609  0.50642956  0.20773731     2.64700
O17         O  0.14283929  0.50162681  0.20807495    -0.98800
O18         O  0.19965746  0.50497120  0.15383545    -0.80900
O19         O  0.19814782  0.46321245  0.25188767    -0.84200
O20         O  0.19772344  0.55219552  0.25121621    -2.19000
O21         O  0.30316467  0.58554043  0.31147821    -0.67600
O22         O  0.27653560  0.63957479  0.28599693    -0.52200
C23         C  0.29659142  0.62697917  0.30541958     0.71100
O24         O  0.30482903  0.43435597  0.19453100    -0.60500
O25         O  0.28051656  0.38023068  0.22166014    -0.52500
C26         C  0.29987672  0.39292598  0.20203092     0.72900
O27         O  0.30341685  0.58464357  0.19299628    -0.71900
O28         O  0.27823572  0.63903114  0.21912703    -0.50600
C29         C  0.29777819  0.62623432  0.19960753     0.74300
O30         O  0.30295724  0.43358016  0.31258903    -0.67300
O31         O  0.27647102  0.37969976  0.28629743    -0.54500
C32         C  0.29605690  0.39204630  0.30610105     0.72700
Zr33       Zr  0.28834658  0.50956558  0.29625523     2.77500
O34         O  0.34353853  0.50534830  0.29572179    -0.98000
O35         O  0.28768798  0.51327669  0.35018483    -0.78800
Zr36       Zr  0.28766850  0.50943223  0.20825268     2.70100
O37         O  0.34278204  0.51080954  0.20596992    -0.80100
O38         O  0.28271294  0.50681413  0.15443172    -0.99200
Zr39       Zr  0.24436805  0.42129076  0.25238221     2.21500
Zr40       Zr  0.24309465  0.59751057  0.25134471     2.11100
O41         O  0.28873257  0.55380182  0.25223253    -2.47900
O42         O  0.28970097  0.46554967  0.25225414    -0.79900
O43         O  0.24346261  0.55399388  0.29603240    -0.72100
O44         O  0.24346639  0.46358203  0.20746767    -2.33000
O45         O  0.24359971  0.46492880  0.29707186    -2.29200
O46         O  0.24256293  0.55286662  0.20696854    -0.73800
H47         H  0.17992339  0.57122769  0.25097005     0.78200
H48         H  0.24389803  0.44371401  0.19033994     0.79300
H49         H  0.30646244  0.57332784  0.25231887     0.81500
H50         H  0.24350351  0.44569457  0.31438798     0.79100
H51         H  0.22007056  0.49321866  0.14910847     0.42100
H52         H  0.27321940  0.53611543  0.14901481     0.41100
H53         H  0.34954779  0.50828319  0.22688766     0.40800
H54         H  0.34975244  0.52580797  0.27949474     0.38700
H55         H  0.26615509  0.50808647  0.35539161     0.41800
H56         H  0.21084651  0.48486429  0.35556911     0.36600
H57         H  0.13836603  0.53247099  0.27731970     0.42700
H58         H  0.13632459  0.52832127  0.21981896     0.39200
H59         H  0.35026515  0.52104489  0.31414824     0.44100
H60         H  0.17648287  0.49826297  0.35414205     0.42800
H61         H  0.13659071  0.50869895  0.18745271     0.42900
H62         H  0.30383033  0.50936998  0.14721613     0.43300
O63         O  0.44166558  0.43212509  0.44082038    -0.75600
O64         O  0.46386758  0.37703011  0.46817663    -0.54500
C65         C  0.44575789  0.38987463  0.44731381     0.78100
O66         O  0.05520602  0.58899811  0.43827948    -0.60200
O67         O  0.03163700  0.64095573  0.46792897    -0.53200
C68         C  0.04929532  0.63015011  0.44641947     0.70200
O69         O  0.05683731  0.43624854  0.43817817    -0.74700
O70         O  0.03195987  0.38123878  0.46453659    -0.55300
C71         C  0.05077894  0.39461012  0.44454808     0.76200
O72         O  0.43916814  0.58626290  0.44414429    -0.59900
O73         O  0.46506793  0.64018289  0.47104659    -0.53000
C74         C  0.44520572  0.62788642  0.45131142     0.72800
Zr75       Zr  0.45272136  0.50930880  0.45933651     2.54700
O76         O  0.44146785  0.51105742  0.40639313    -0.80500
O77         O  0.39878272  0.50859736  0.47084226    -0.93900
Zr78       Zr  0.04236572  0.51149327  0.45483138     2.64700
O79         O  0.03784762  0.50874435  0.40097112    -0.98800
O80         O  0.09767572  0.51400038  0.45458096    -0.80900
O81         O  0.49752132  0.46578023  0.45603867    -0.84200
O82         O  0.49752785  0.55458171  0.45709847    -2.19000
O83         O  0.43900506  0.58538052  0.05815413    -0.67600
O84         O  0.46388628  0.63958140  0.03174082    -0.52200
C85         C  0.44355245  0.62702543  0.05036887     0.71100
O86         O  0.05771154  0.42877218  0.05834855    -0.60500
O87         O  0.03004724  0.37528935  0.03336109    -0.52500
C88         C  0.04932967  0.38711151  0.05358980     0.72900
O89         O  0.06450603  0.58097363  0.05960034    -0.71900
O90         O  0.03468537  0.63559361  0.03831734    -0.50600
C91         C  0.05616616  0.62238332  0.05611432     0.74300
O92         O  0.44374817  0.43318089  0.06264111    -0.67300
O93         O  0.46628983  0.37855305  0.03430862    -0.54500
C94         C  0.44847706  0.39154103  0.05526753     0.72700
Zr95       Zr  0.45776631  0.50905257  0.04666547     2.77500
O96         O  0.46601302  0.51437189  0.10005271    -0.98000
O97         O  0.40295808  0.50580470  0.05218677    -0.78800
Zr98       Zr  0.04736981  0.50688641  0.04210193     2.70100
O99         O  0.05507316  0.51218980  0.09549581    -0.80100
O100        O  0.10176648  0.50016890  0.03404889    -0.99200
Zr101      Zr  0.49897106  0.42006691  0.99981674     2.21500
Zr102      Zr  0.50028767  0.59776902  0.00210659     2.11100
O103        O  0.50294755  0.55245178  0.04585440    -2.47900
O104        O  0.50200591  0.46347918  0.04467587    -0.79900
O105        O  0.45491409  0.55333044  0.00316606    -0.72100
O106        O  0.04488928  0.46422392  0.99767221    -2.33000
O107        O  0.45382793  0.46443008  0.00256349    -2.29200
O108        O  0.04582041  0.55446676  0.99951107    -0.73800
H109        H  0.49654016  0.57423176  0.43998683     0.78200
H110        H  0.06243489  0.44475886  0.99674042     0.79300
H111        H  0.50373374  0.57118055  0.06349040     0.81500
H112        H  0.43605158  0.44500982  0.00319236     0.79100
H113        H  0.10315201  0.54117282  0.46659836     0.42100
H114        H  0.10728433  0.52776296  0.02276617     0.41100
H115        H  0.03630529  0.52640134  0.10302056     0.40800
H116        H  0.44578414  0.50820304  0.10863351     0.38700
H117        H  0.39495869  0.50586116  0.03159211     0.41800
H118        H  0.39392771  0.47670811  0.47601266     0.36600
H119        H  0.46159585  0.51429310  0.39698241     0.42700
H120        H  0.02210226  0.53146154  0.39602145     0.39200
H121        H  0.47816477  0.48717358  0.10504777     0.44100
H122        H  0.38847596  0.51351634  0.45152678     0.42800
H123        H  0.05704947  0.52227865  0.39375879     0.42900
H124        H  0.11102219  0.50506112  0.05392827     0.43300
C125        C  0.36994070  0.25996640  0.37337269    -0.02800
O126        O  0.30975788  0.09181949  0.44487515    -0.75600
O127        O  0.28318911  0.14484586  0.47110577    -0.54500
C128        C  0.30311705  0.13308675  0.45176426     0.78100
O129        O  0.18571590  0.93643721  0.44498621    -0.60200
O130        O  0.21302681  0.88353538  0.47050098    -0.53200
C131        C  0.19226712  0.89517931  0.45185941     0.70200
O132        O  0.18822899  0.08854863  0.44269627    -0.74700
O133        O  0.21584269  0.14348600  0.46669219    -0.55300
C134        C  0.19553173  0.13031434  0.44761090     0.76200
O135        O  0.31034043  0.94017590  0.44399885    -0.59900
O136        O  0.28373447  0.88565319  0.46898357    -0.53000
C137        C  0.30378527  0.89854354  0.44994186     0.72800
Zr138      Zr  0.29412484  0.01537063  0.45959815     2.54700
O139        O  0.29654939  0.01618888  0.40568547    -0.80500
O140        O  0.34914293  0.01557249  0.46594211    -0.93900
Zr141      Zr  0.20387466  0.01290993  0.45722811     2.64700
O142        O  0.20713710  0.00749176  0.40344989    -0.98800
O143        O  0.14865385  0.01598236  0.45485349    -0.80900
O144        O  0.24870353  0.05851600  0.45760724    -0.84200
O145        O  0.24920658  0.96991064  0.45701490    -2.19000
O146        O  0.30726726  0.93651469  0.06185724    -0.67600
O147        O  0.27895467  0.88411984  0.03639271    -0.52200
C148        C  0.29906648  0.89506233  0.05598042     0.71100
O149        O  0.18581929  0.09023488  0.05940512    -0.60500
O150        O  0.21231175  0.14380136  0.03340837    -0.52500
C151        C  0.19230847  0.13163434  0.05255609     0.72900
O152        O  0.18630569  0.93718546  0.05805689    -0.71900
O153        O  0.21344807  0.88388336  0.03262078    -0.50600
C154        C  0.19309212  0.89586467  0.05137434     0.74300
O155        O  0.30758210  0.09079211  0.06181786    -0.67300
O156        O  0.27906671  0.14425088  0.03804378    -0.54500
C157        C  0.29968737  0.13220446  0.05689414     0.72700
Zr158      Zr  0.29204429  0.01403725  0.04732262     2.77500
O159        O  0.28264560  0.01703552  0.10030336    -0.98000
O160        O  0.34712556  0.01542000  0.05304771    -0.78800
Zr161      Zr  0.20234101  0.01403881  0.04509668     2.70100
O162        O  0.20514929  0.01326332  0.09907413    -0.80100
O163        O  0.14707605  0.01538011  0.04419633    -0.99200
Zr164      Zr  0.24771254  0.10252282  0.00212686     2.21500
Zr165      Zr  0.24830492  0.92639768  0.00167236     2.11100
O166        O  0.24713242  0.96961287  0.04648420    -2.47900
O167        O  0.24729561  0.05880779  0.04657229    -0.79900
O168        O  0.29402327  0.97024472  0.00309385    -0.72100
O169        O  0.20230673  0.05769288  0.00111777    -2.33000
O170        O  0.29338557  0.05910733  0.00368525    -2.29200
O171        O  0.20250081  0.96913119  0.00124782    -0.73800
H172        H  0.24952515  0.95019134  0.43979733     0.78200
H173        H  0.18450882  0.07675107  0.00060861     0.79300
H174        H  0.24665713  0.94984694  0.06352464     0.81500
H175        H  0.31097990  0.07889007  0.00432117     0.79100
H176        H  0.14237510  0.02062423  0.47566607     0.42100
H177        H  0.14116491  0.99208562  0.02928744     0.41100
H178        H  0.21687280  0.04101784  0.10444514     0.40800
H179        H  0.26881876  0.99123921  0.10442423     0.38700
H180        H  0.35411226  0.03919302  0.03914861     0.41800
H181        H  0.35396546  0.04436996  0.47649344     0.36600
H182        H  0.27641194  0.02748684  0.39921767     0.42700
H183        H  0.22162752  0.98262756  0.39950779     0.39200
H184        H  0.30229919  0.00880665  0.10961054     0.44100
H185        H  0.35708137  0.02011656  0.44568691     0.42800
H186        H  0.18715988  0.99505603  0.39701461     0.42900
H187        H  0.14099301  0.00223915  0.06344898     0.43300
C188        C  0.12344458  0.76277705  0.37853347    -0.02800
O189        O  0.43243792  0.08121493  0.19332899    -0.75600
O190        O  0.46044983  0.13502427  0.21829208    -0.54500
C191        C  0.44001796  0.12285073  0.19924272     0.78100
O192        O  0.43778127  0.92978749  0.31212322    -0.60200
O193        O  0.46135753  0.87495845  0.28466127    -0.53200
C194        C  0.44333153  0.88829283  0.30534071     0.70200
O195        O  0.43863201  0.08104076  0.31208510    -0.74700
O196        O  0.46355412  0.13492614  0.28607876    -0.55300
C197        C  0.44540859  0.12287630  0.30699828     0.76200
O198        O  0.43607640  0.92658459  0.18932431    -0.59900
O199        O  0.46324397  0.87340172  0.21459420    -0.53000
C200        C  0.44416664  0.88517677  0.19435333     0.72800
Zr201      Zr  0.44648399  0.00352995  0.20824927     2.54700
O202        O  0.39197879  0.99951700  0.21657541    -0.80500
O203        O  0.43756054  0.00211138  0.15490057    -0.93900
Zr204      Zr  0.45161501  0.00466908  0.29528296     2.64700
O205        O  0.39630124  0.00430297  0.29676931    -0.98800
O206        O  0.45692320  0.00416191  0.34907531    -0.80900
O207        O  0.44817528  0.04928528  0.25178219    -0.84200
O208        O  0.44852863  0.95868909  0.25178639    -2.19000
O209        O  0.05231152  0.92691956  0.19200450    -0.67600
O210        O  0.02516086  0.87198492  0.21507336    -0.52200
C211        C  0.04543461  0.88490354  0.19645386     0.71100
O212        O  0.05531386  0.08077003  0.30837605    -0.60500
O213        O  0.02784332  0.13434533  0.28350870    -0.52500
C214        C  0.04787844  0.12217151  0.30280318     0.72900
O215        O  0.05347088  0.92700220  0.30792493    -0.71900
O216        O  0.03098368  0.87215635  0.27953566    -0.50600
C217        C  0.04991935  0.88513578  0.29985130     0.74300
O218        O  0.05025563  0.07912184  0.18787042    -0.67300
O219        O  0.02558939  0.13331559  0.21370253    -0.54500
C220        C  0.04367347  0.12090171  0.19279156     0.72700
Zr221      Zr  0.03656115  0.00370401  0.20496042     2.77500
O222        O  0.09163435  0.00814881  0.20081337    -0.98000
O223        O  0.02806081  0.00073102  0.15157990    -0.78800
Zr224      Zr  0.04127424  0.00433393  0.29205368     2.70100
O225        O  0.09542837  0.00851666  0.28196106    -0.80100
O226        O  0.05053724  0.00406366  0.34542714    -0.99200
Zr227      Zr  0.99434982  0.09261206  0.25016979     2.21500
Zr228      Zr  0.49439904  0.91504792  0.25001544     2.11100
O229        O  0.04005586  0.95937225  0.24853543    -2.47900
O230        O  0.03985887  0.04916883  0.24845859    -0.79900
O231        O  0.49148617  0.95952477  0.20602352    -0.72100
O232        O  0.99663635  0.04850362  0.29442224    -2.33000
O233        O  0.99174645  0.04765895  0.20596606    -2.29200
O234        O  0.49626797  0.95977551  0.29435818    -0.73800
H235        H  0.43095545  0.93905858  0.25234697     0.78200
H236        H  0.99743445  0.06752526  0.31193836     0.79300
H237        H  0.05783647  0.94034680  0.24801986     0.81500
H238        H  0.99094637  0.06655388  0.18851150     0.79100
H239        H  0.47901484  0.00770203  0.35281482     0.42100
H240        H  0.03625314  0.98106000  0.35332426     0.41100
H241        H  0.09781137  0.03479849  0.26851311     0.40800
H242        H  0.09937570  0.98441203  0.21438726     0.38700
H243        H  0.01091651  0.97910379  0.14879917     0.41800
H244        H  0.45519596  0.01834050  0.14643714     0.36600
H245        H  0.38860801  0.01949024  0.23396005     0.42700
H246        H  0.39007043  0.97560910  0.28677619     0.39200
H247        H  0.09596131  0.99638373  0.18068589     0.44100
H248        H  0.41995511  0.02222908  0.15134949     0.42800
H249        H  0.39145736  0.99939701  0.31792560     0.42900
H250        H  0.07090420  0.99040693  0.34796923     0.43300
C251        C  0.36877572  0.75422814  0.12326196    -0.02800
C252        C  0.12134462  0.25770296  0.12798954    -0.02800
C253        C  0.37356824  0.26490975  0.12897230    -0.02800
C254        C  0.12477506  0.76347638  0.12481754    -0.02800
C255        C  0.11969892  0.25719887  0.37422695    -0.02800
C256        C  0.37114016  0.75842230  0.37863819    -0.02800
C257        C  0.07896074  0.19326245  0.30566784    -0.02100
C258        C  0.06378501  0.15805412  0.32014544     0.07500
C259        C  0.06569921  0.15470882  0.35104346    -0.02300
C260        C  0.08310504  0.18625059  0.36783874    -0.02300
C261        C  0.09980594  0.22292516  0.35394075     0.07700
C262        C  0.09905287  0.22235911  0.32148718    -0.02400
Br263      Br  0.12894641  0.24868408  0.29480137    -0.01000
Br264      Br  0.07387336  0.19918593  0.26289454    -0.01100
Br265      Br  0.07908263  0.17962686  0.41026902    -0.01000
Br266      Br  0.04075156  0.10939950  0.37072317    -0.01000
C267        C  0.07476006  0.23546065  0.16350809    -0.02100
C268        C  0.10057962  0.22172239  0.14582361     0.07500
C269        C  0.10432501  0.17317443  0.14373520    -0.02300
C270        C  0.08165673  0.14267548  0.15306895    -0.02300
C271        C  0.05943057  0.15617550  0.17364965     0.07700
C272        C  0.05485348  0.20336486  0.17706475    -0.02400
Br273      Br  0.01917824  0.22517244  0.19787392    -0.01000
Br274      Br  0.06769659  0.29701928  0.17570029    -0.01100
Br275      Br  0.08063237  0.08329591  0.13391970    -0.01000
Br276      Br  0.14243365  0.14208499  0.13980781    -0.01000
C277        C  0.41074482  0.82560427  0.37066749    -0.02100
C278        C  0.39059823  0.79154430  0.35735850     0.07500
C279        C  0.38768629  0.79463777  0.32490741    -0.02300
C280        C  0.40366248  0.82853616  0.30900703    -0.02300
C281        C  0.42659643  0.85405083  0.32255905     0.07700
C282        C  0.43007321  0.85289047  0.35323292    -0.02400
Br283      Br  0.46301862  0.88841323  0.37103914    -0.01000
Br284      Br  0.41772140  0.83396673  0.41270245    -0.01100
Br285      Br  0.39082344  0.84753792  0.26950696    -0.01000
Br286      Br  0.36009897  0.76166710  0.29827641    -0.01000
C287        C  0.08505910  0.77476469  0.16915037    -0.02100
C288        C  0.10465118  0.79340045  0.14656822     0.07500
C289        C  0.10473044  0.84190213  0.14499324    -0.02300
C290        C  0.07976564  0.86612147  0.15438946    -0.02300
C291        C  0.06308404  0.85059341  0.17880804     0.07700
C292        C  0.06685897  0.80424492  0.18690166    -0.02400
Br293      Br  0.04752083  0.77999693  0.22161867    -0.01000
Br294      Br  0.08100250  0.70975218  0.17609496    -0.01100
Br295      Br  0.06970857  0.91948374  0.13162706    -0.01000
Br296      Br  0.14081691  0.87992706  0.14446270    -0.01000
C297        C  0.40601842  0.82506159  0.12870617    -0.02100
C298        C  0.39012217  0.78748227  0.14276590     0.07500
C299        C  0.39528867  0.78377577  0.17453281    -0.02300
C300        C  0.41866930  0.80881142  0.18855375    -0.02300
C301        C  0.42964274  0.84885989  0.17573656     0.07700
C302        C  0.42444099  0.85573102  0.14536940    -0.02400
Br303      Br  0.44805481  0.90233329  0.12556731    -0.01000
Br304      Br  0.40680532  0.83483721  0.08621933    -0.01100
Br305      Br  0.43726036  0.78450599  0.22418703    -0.01000
Br306      Br  0.36823883  0.75840598  0.20411165    -0.01000
C307        C  0.40917077  0.19318543  0.13518661    -0.02100
C308        C  0.39255502  0.22974156  0.14942573     0.07500
C309        C  0.39257362  0.22786406  0.18189288    -0.02300
C310        C  0.40921512  0.19419831  0.19755880    -0.02300
C311        C  0.42431603  0.15948167  0.18252486     0.07700
C312        C  0.42467783  0.15947699  0.15157925    -0.02400
Br313      Br  0.44991401  0.11506127  0.13165472    -0.01000
Br314      Br  0.41565625  0.18917736  0.09295043    -0.01100
Br315      Br  0.40990072  0.19276088  0.24079216    -0.01000
Br316      Br  0.36673908  0.26156731  0.20869389    -0.01000
C317        C  0.09804117  0.86745125  0.32678553    -0.02100
C318        C  0.07055533  0.85139030  0.31484001     0.07500
C319        C  0.06509779  0.80428058  0.31667024    -0.02300
C320        C  0.08605904  0.77593990  0.33212366    -0.02300
C321        C  0.10690260  0.79486484  0.35403006     0.07700
C322        C  0.11340243  0.84330648  0.34925701    -0.02400
Br323      Br  0.14411378  0.88299784  0.36783843    -0.01000
Br324      Br  0.11802856  0.91835394  0.30739024    -0.01100
Br325      Br  0.08476315  0.71227429  0.32096236    -0.01000
Br326      Br  0.02873122  0.77772572  0.29926492    -0.01000
C327        C  0.31966255  0.16282738  0.10523117    -0.02100
C328        C  0.31595445  0.16795130  0.07450996     0.07500
C329        C  0.32973875  0.20512577  0.06057299    -0.02300
C330        C  0.35127277  0.23254248  0.07600945    -0.02300
C331        C  0.35320836  0.23170648  0.10835579     0.07700
C332        C  0.33589907  0.19548336  0.12215300    -0.02400
Br333      Br  0.32868434  0.19121669  0.16435732    -0.01000
Br334      Br  0.29932736  0.11292223  0.12512497    -0.01100
Br335      Br  0.38020454  0.25930007  0.04854854    -0.01000
Br336      Br  0.32016830  0.21748869  0.01928095    -0.01000
C337        C  0.19175822  0.19149654  0.09180962    -0.02100
C338        C  0.17650684  0.16792745  0.06906912     0.07500
C339        C  0.14644734  0.17938093  0.06248992    -0.02300
C340        C  0.13395310  0.21813713  0.07587979    -0.02300
C341        C  0.14383099  0.23204847  0.10498357     0.07700
C342        C  0.17530910  0.21936123  0.11170655    -0.02400
Br343      Br  0.19679453  0.22726188  0.14934586    -0.01000
Br344      Br  0.23477775  0.18085545  0.09731116    -0.01100
Br345      Br  0.12702734  0.26276799  0.04532981    -0.01000
Br346      Br  0.12502278  0.14964997  0.03023064    -0.01000
C347        C  0.14516907  0.85644268  0.06541045    -0.02100
C348        C  0.17675638  0.85978950  0.06755585     0.07500
C349        C  0.19243201  0.83323625  0.08816966    -0.02300
C350        C  0.17658688  0.80508818  0.10816274    -0.02300
C351        C  0.14416700  0.79710251  0.10472002     0.07700
C352        C  0.12895242  0.82538306  0.08303973    -0.02400
Br353      Br  0.08565599  0.82443404  0.07564060    -0.01000
Br354      Br  0.12402105  0.89484869  0.03745823    -0.01100
Br355      Br  0.20089727  0.78967118  0.14276011    -0.01000
Br356      Br  0.23617414  0.83980943  0.09088658    -0.01000
C357        C  0.35572415  0.79906739  0.43162090    -0.02100
C358        C  0.35268110  0.79407041  0.39929123     0.07500
C359        C  0.33413913  0.82903337  0.38535729    -0.02300
C360        C  0.31719908  0.86071358  0.40214000    -0.02300
C361        C  0.32046992  0.86332064  0.43289644     0.07700
C362        C  0.34188748  0.83589244  0.44684820    -0.02400
Br363      Br  0.35679126  0.85662910  0.48538672    -0.01000
Br364      Br  0.38115631  0.76419300  0.45863201    -0.01100
Br365      Br  0.28867936  0.90181326  0.38301182    -0.01000
Br366      Br  0.32611388  0.83293314  0.34332130    -0.01000
C367        C  0.16528023  0.20252460  0.44254606    -0.02100
C368        C  0.17885948  0.16455276  0.42942416     0.07500
C369        C  0.17375072  0.15621315  0.39907280    -0.02300
C370        C  0.15610581  0.18629175  0.38175211    -0.02300
C371        C  0.13997632  0.22427462  0.39485909     0.07700
C372        C  0.14285792  0.22751795  0.42704236    -0.02400
Br373      Br  0.11350843  0.25348299  0.45436249    -0.01000
Br374      Br  0.17655615  0.21993956  0.48268778    -0.01100
Br375      Br  0.15984042  0.17580641  0.33962874    -0.01000
Br376      Br  0.19462116  0.10592023  0.37994619    -0.01000
C377        C  0.33361924  0.82621077  0.11960650    -0.02100
C378        C  0.34801811  0.78849366  0.10458077     0.07500
C379        C  0.34297949  0.78706768  0.07270733    -0.02300
C380        C  0.32168537  0.81617073  0.05920177    -0.02300
C381        C  0.31370168  0.85731811  0.07306732     0.07700
C382        C  0.31928423  0.86157681  0.10369658    -0.02400
Br383      Br  0.30279499  0.91279388  0.12516738    -0.01000
Br384      Br  0.32934501  0.82982547  0.16220246    -0.01100
Br385      Br  0.30207616  0.79603695  0.02264710    -0.01000
Br386      Br  0.36783780  0.75780208  0.04295578    -0.01000
C387        C  0.12709502  0.82629768  0.41872599    -0.02100
C388        C  0.14275349  0.79385897  0.40014231     0.07500
C389        C  0.17525001  0.79108229  0.40433308    -0.02300
C390        C  0.19098127  0.82513477  0.42050730    -0.02300
C391        C  0.17523103  0.85844988  0.43642123     0.07700
C392        C  0.14339593  0.85745577  0.43679254    -0.02400
Br393      Br  0.12192389  0.90176181  0.46033824    -0.01000
Br394      Br  0.08339913  0.83424561  0.41773299    -0.01100
Br395      Br  0.23486811  0.82729882  0.42000310    -0.01000
Br396      Br  0.19950374  0.73768261  0.39612713    -0.01000
C397        C  0.43422429  0.20595761  0.32209091    -0.02100
C398        C  0.42982157  0.15866251  0.32590006     0.07500
C399        C  0.40793257  0.14539199  0.34682150    -0.02300
C400        C  0.38531300  0.17560000  0.35606168    -0.02300
C401        C  0.38918615  0.22420014  0.35399488     0.07700
C402        C  0.41456260  0.23805339  0.33586712    -0.02400
Br403      Br  0.42176663  0.30012988  0.32502501    -0.01000
Br404      Br  0.46986237  0.22805422  0.30141369    -0.01100
Br405      Br  0.34720454  0.14366067  0.35926584    -0.01000
Br406      Br  0.40991618  0.08745090  0.36719526    -0.01000
C407        C  0.30214218  0.19116444  0.41181775    -0.02100
C408        C  0.31819117  0.16950469  0.43459643     0.07500
C409        C  0.34841239  0.18219235  0.44008320    -0.02300
C410        C  0.36060691  0.22023505  0.42558743    -0.02300
C411        C  0.34910666  0.23336251  0.39702378     0.07700
C412        C  0.31757200  0.21946606  0.39143392    -0.02400
Br413      Br  0.29435900  0.22834567  0.35488054    -0.01000
Br414      Br  0.25941382  0.17691865  0.40675253    -0.01100
Br415      Br  0.37309537  0.26512486  0.45475905    -0.01000
Br416      Br  0.37184721  0.15297672  0.47079694    -0.01000
C417        C  0.06283822  0.30445311  0.06844702    -0.02100
C418        C  0.06243984  0.35173378  0.07408745     0.07500
C419        C  0.07259298  0.36591878  0.10208010    -0.02300
C420        C  0.09365355  0.33990691  0.11834185    -0.02300
C421        C  0.09786747  0.29158097  0.11138510     0.07700
C422        C  0.07650411  0.27451803  0.08943441    -0.02400
Br423      Br  0.06415778  0.21121184  0.08676178    -0.01000
Br424      Br  0.04470862  0.27938883  0.03257921    -0.01100
Br425      Br  0.11070263  0.37666026  0.15085530    -0.01000
Br426      Br  0.05079345  0.41494395  0.12148659    -0.01000
C427        C  0.07110607  0.72323799  0.10722851    -0.02100
C428        C  0.10331840  0.73241535  0.10322250     0.07500
C429        C  0.11591900  0.70855544  0.07831464    -0.02300
C430        C  0.10293060  0.66781110  0.06775765    -0.02300
C431        C  0.07268730  0.65737132  0.07392550     0.07700
C432        C  0.05733165  0.68389676  0.09466552    -0.02400
Br433      Br  0.01838631  0.66244384  0.10861161    -0.01000
Br434      Br  0.04075203  0.76729930  0.11929711    -0.01100
Br435      Br  0.12694145  0.62733091  0.04371692    -0.01000
Br436      Br  0.13754308  0.73925559  0.04669498    -0.01000
C437        C  0.43643175  0.70276471  0.07581939    -0.02100
C438        C  0.42394650  0.66228489  0.06452681     0.07500
C439        C  0.39297788  0.65350806  0.06941995    -0.02300
C440        C  0.37529846  0.68335517  0.08694107    -0.02300
C441        C  0.38890920  0.72179474  0.10252654     0.07700
C442        C  0.42153425  0.72656234  0.09850279    -0.02400
Br443      Br  0.45132033  0.74957998  0.12715339    -0.01000
Br444      Br  0.47395886  0.72737580  0.06035642    -0.01100
Br445      Br  0.33209588  0.67116408  0.08531568    -0.01000
Br446      Br  0.37353083  0.60429002  0.04747438    -0.01000
C447        C  0.10606389  0.72444690  0.43099928    -0.02100
C448        C  0.09996571  0.73594145  0.39991670     0.07500
C449        C  0.07160191  0.71825877  0.38904184    -0.02300
C450        C  0.05926119  0.67819504  0.40113590    -0.02300
C451        C  0.06513482  0.66796164  0.43094894     0.07700
C452        C  0.08608659  0.69523495  0.44653515    -0.02400
Br453      Br  0.08918134  0.68882365  0.48904332    -0.01000
Br454      Br  0.14324425  0.73593232  0.45363428    -0.01100
Br455      Br  0.02943633  0.64398474  0.37867541    -0.01000
Br456      Br  0.03927968  0.75951310  0.37905257    -0.01000
C457        C  0.44162421  0.69898730  0.42044321    -0.02100
C458        C  0.42733244  0.66332289  0.43537753     0.07500
C459        C  0.39578343  0.65857390  0.43295326    -0.02300
C460        C  0.37840937  0.68868593  0.41531110    -0.02300
C461        C  0.39235919  0.72468027  0.39798569     0.07700
C462        C  0.42558560  0.72520239  0.39921841    -0.01200
Br463      Br  0.45338290  0.74922633  0.36956525    -0.01000
Br464      Br  0.48395429  0.71193398  0.42912047    -0.01100
Br465      Br  0.33527128  0.68174118  0.42083780    -0.01000
Br466      Br  0.37589894  0.61459820  0.45851779    -0.01000
C467        C  0.05128196  0.33076938  0.40818046    -0.02100
C468        C  0.06711898  0.35975399  0.42738550     0.07500
C469        C  0.09870481  0.35852371  0.42843467    -0.02300
C470        C  0.11483259  0.32797217  0.41030635    -0.02300
C471        C  0.09950016  0.29209231  0.39339584     0.07700
C472        C  0.06623626  0.29502559  0.39305116    -0.02400
Br473      Br  0.03728591  0.25851637  0.37007582    -0.01000
Br474      Br  0.00929955  0.34639139  0.39937109    -0.01100
Br475      Br  0.15835706  0.33583561  0.41345231    -0.01000
Br476      Br  0.11980065  0.39841121  0.45648832    -0.01000
C477        C  0.42831224  0.29715646  0.10970076    -0.02100
C478        C  0.39509917  0.29803529  0.10983158     0.07500
C479        C  0.38167288  0.33424741  0.09231652    -0.02300
C480        C  0.39923643  0.36158198  0.07321690    -0.02300
C481        C  0.43075842  0.35716373  0.07205129     0.07700
C482        C  0.44510095  0.32490549  0.08993525    -0.02400
Br483      Br  0.48888062  0.32166429  0.08863080    -0.01000
Br484      Br  0.45465301  0.26851569  0.13926742    -0.01100
Br485      Br  0.37975084  0.40246150  0.04512941    -0.01000
Br486      Br  0.33874452  0.34672427  0.08970762    -0.01000
C487        C  0.41967161  0.27795163  0.40704689    -0.02100
C488        C  0.39422243  0.29377489  0.38947956     0.07500
C489        C  0.39194932  0.34270631  0.38841581    -0.02300
C490        C  0.40352990  0.36964589  0.41144606    -0.02300
C491        C  0.42826370  0.35492814  0.42887279     0.07700
C492        C  0.43654595  0.30830238  0.42615264    -0.02400
Br493      Br  0.46850495  0.28332971  0.45100168    -0.01000
Br494      Br  0.43196721  0.21471180  0.40750348    -0.01100
Br495      Br  0.38153351  0.42513594  0.41966190    -0.01000
Br496      Br  0.38255424  0.38003893  0.35387422    -0.01000
C497        C  0.31616911  0.72243602  0.36029110    -0.02100
C498        C  0.34942758  0.72402640  0.35977863     0.07500
C499        C  0.36316493  0.68841756  0.34198564    -0.02300
C500        C  0.34574025  0.66008533  0.32283240    -0.02300
C501        C  0.31405828  0.66179406  0.32259770     0.07700
C502        C  0.29944568  0.69127314  0.34208083    -0.02400
Br503      Br  0.25587672  0.68334966  0.34618298    -0.01000
Br504      Br  0.28998900  0.75333077  0.38835094    -0.01100
Br505      Br  0.36543053  0.62101460  0.29394256    -0.01000
Br506      Br  0.40625181  0.67945528  0.33808509    -0.01000
C507        C  0.18821512  0.32063813  0.33307952    -0.02100
C508        C  0.17259522  0.35528793  0.31835558     0.07500
C509        C  0.14100883  0.35798510  0.32055970    -0.02300
C510        C  0.12462518  0.32585466  0.33723641    -0.02300
C511        C  0.13979482  0.29058538  0.35424806     0.07700
C512        C  0.17292335  0.29090287  0.35260454    -0.02400
Br513      Br  0.20146741  0.26100984  0.37937194    -0.01000
Br514      Br  0.23191983  0.31640849  0.32799089    -0.01100
Br515      Br  0.08109909  0.32883624  0.33083438    -0.01000
Br516      Br  0.11967685  0.40389535  0.29759172    -0.01000
C517        C  0.36669689  0.33552240  0.16514309    -0.02100
C518        C  0.35273814  0.29882184  0.14806447     0.07500
C519        C  0.31955146  0.29761320  0.14893032    -0.02300
C520        C  0.30349097  0.32340799  0.17010806    -0.02300
C521        C  0.31795156  0.35825335  0.18611343     0.07700
C522        C  0.34938875  0.36430088  0.18356521    -0.02400
Br523      Br  0.36938468  0.40861311  0.20944196    -0.01000
Br524      Br  0.40996189  0.34554867  0.16876945    -0.01100
Br525      Br  0.26051629  0.31242524  0.17635489    -0.01000
Br526      Br  0.29195671  0.27258005  0.11872222    -0.01000
C527        C  0.17470494  0.65765212  0.14864607    -0.02100
C528        C  0.17271061  0.65884385  0.17968837     0.07500
C529        C  0.15958396  0.69679463  0.19320196    -0.02300
C530        C  0.14935342  0.73388825  0.17609906    -0.02300
C531        C  0.14600467  0.73019046  0.14417111     0.07700
C532        C  0.16342547  0.69386607  0.13124000    -0.02400
Br533      Br  0.18429528  0.69958658  0.09405893    -0.01000
Br534      Br  0.19601655  0.60780860  0.12982347    -0.01100
Br535      Br  0.14890898  0.79114940  0.19792656    -0.01000
Br536      Br  0.15341892  0.69667899  0.23553987    -0.01000
C537        C  0.29976520  0.69367778  0.16587243    -0.02100
C538        C  0.31510538  0.66090559  0.18256747     0.07500
C539        C  0.34660066  0.65622976  0.17931693    -0.02300
C540        C  0.36307737  0.68423311  0.15963785    -0.02300
C541        C  0.34858271  0.72059129  0.14329369     0.07700
C542        C  0.31544369  0.72127261  0.14521327    -0.02400
Br543      Br  0.28751915  0.74895132  0.11682952    -0.01000
Br544      Br  0.25587292  0.69750097  0.16970703    -0.01100
Br545      Br  0.40628550  0.67245787  0.15911564    -0.01000
Br546      Br  0.36794799  0.61382907  0.20490149    -0.01000
C547        C  0.31016988  0.35411925  0.35357995    -0.02100
C548        C  0.31191927  0.35581826  0.32263425     0.07500
C549        C  0.32844715  0.32267425  0.30736987    -0.02300
C550        C  0.34413565  0.28822324  0.32275810    -0.02300
C551        C  0.34732853  0.29034152  0.35459710     0.07700
C552        C  0.32757787  0.32231090  0.36965914    -0.02400
Br553      Br  0.32394137  0.32678973  0.41244426    -0.01000
Br554      Br  0.28450095  0.39733914  0.37402696    -0.01100
Br555      Br  0.35333334  0.23543019  0.29858225    -0.01000
Br556      Br  0.33067015  0.32592826  0.26470216    -0.01000
C557        C  0.17842823  0.70980121  0.31774133    -0.02100
C558        C  0.17141982  0.66279394  0.31945853     0.07500
C559        C  0.14912799  0.64952136  0.34001880    -0.02300
C560        C  0.14033191  0.67904738  0.36276756    -0.02300
C561        C  0.14321549  0.72746462  0.35971806     0.07700
C562        C  0.16331710  0.74169926  0.33623557    -0.02400
Br563      Br  0.17606397  0.80362033  0.33082944    -0.01000
Br564      Br  0.20870475  0.73240366  0.29003975    -0.01100
Br565      Br  0.13707728  0.64700454  0.39977788    -0.01000
Br566      Br  0.12742395  0.59203241  0.33714276    -0.01000
C567        C  0.16343351  0.31957794  0.13467765    -0.02100
C568        C  0.14299790  0.28721430  0.14845735     0.07500
C569        C  0.14552845  0.28322268  0.18034711    -0.02300
C570        C  0.16183540  0.31634179  0.19693655    -0.02300
C571        C  0.17881798  0.35007507  0.18268846     0.07700
C572        C  0.18175310  0.34908272  0.15189883    -0.02400
Br573      Br  0.21062162  0.38989473  0.13334200    -0.01000
Br574      Br  0.16525822  0.32993086  0.09240114    -0.01100
Br575      Br  0.16117115  0.31602405  0.23974946    -0.01000
Br576      Br  0.13400332  0.23006007  0.20305036    -0.01000
O577        O  0.18410278  0.43297089  0.81043686    -0.75600
O578        O  0.20894259  0.37961397  0.78311017    -0.54500
C579        C  0.18976933  0.39162019  0.80299928     0.78100
O580        O  0.18176120  0.58191092  0.69199150    -0.60200
O581        O  0.20926758  0.63683145  0.71655063    -0.53200
C582        C  0.18892893  0.62368043  0.69740049     0.70200
O583        O  0.18491256  0.42852639  0.69364960    -0.74700
O584        O  0.21329610  0.37669555  0.71919603    -0.55300
C585        C  0.19310512  0.38759980  0.69986078     0.76200
O586        O  0.18513740  0.58551208  0.81095498    -0.59900
O587        O  0.20734572  0.63874168  0.78221871    -0.53000
C588        C  0.18905075  0.62699400  0.80296518     0.72800
Zr589      Zr  0.19883640  0.50918880  0.79537261     2.54700
O590        O  0.14358858  0.50912169  0.79208489    -0.80500
O591        O  0.19851424  0.51087126  0.84940401    -0.93900
Zr592      Zr  0.19816714  0.50669394  0.70781344     2.64700
O593        O  0.14285201  0.50455043  0.70836639    -0.98800
O594        O  0.19889861  0.50402756  0.65389950    -0.80900
O595        O  0.19814463  0.46337444  0.75195303    -0.84200
O596        O  0.19791887  0.55250815  0.75125639    -2.19000
O597        O  0.30305562  0.58573858  0.81169518    -0.67600
O598        O  0.27679824  0.63984078  0.78590103    -0.52200
C599        C  0.29663910  0.62720010  0.80551411     0.71100
O600        O  0.30478478  0.43422363  0.69467544    -0.60500
O601        O  0.28053997  0.38007238  0.72184311    -0.52500
C602        C  0.29988069  0.39277239  0.70218854     0.72900
O603        O  0.30295372  0.58494792  0.69256022    -0.71900
O604        O  0.27840770  0.63942454  0.71919829    -0.50600
C605        C  0.29759505  0.62657237  0.69937377     0.74300
O606        O  0.30304230  0.43356256  0.81251286    -0.67300
O607        O  0.27645743  0.37965653  0.78633213    -0.54500
C608        C  0.29609730  0.39200808  0.80609002     0.72700
Zr609      Zr  0.28836834  0.50969005  0.79634056     2.77500
O610        O  0.34357583  0.50606853  0.79710070    -0.98000
O611        O  0.28625274  0.51228604  0.85024775    -0.78800
Zr612      Zr  0.28773727  0.50953828  0.70820401     2.70100
O613        O  0.34284034  0.51128790  0.70568255    -0.80100
O614        O  0.28301492  0.50645119  0.65436767    -0.99200
Zr615      Zr  0.24438490  0.42139920  0.75243700     2.21500
Zr616      Zr  0.24331764  0.59775254  0.75132158     2.11100
O617        O  0.28891151  0.55385580  0.75223397    -2.47900
O618        O  0.28971811  0.46574119  0.75228154    -0.79900
O619        O  0.24359617  0.55428297  0.79598088    -0.72100
O620        O  0.24349474  0.46374385  0.70749439    -2.33000
O621        O  0.24365536  0.46507520  0.79707871    -2.29200
O622        O  0.24267094  0.55303767  0.70695181    -0.73800
H623        H  0.18013250  0.57155985  0.75099150     0.78200
H624        H  0.24386933  0.44388243  0.69035992     0.79300
H625        H  0.30666868  0.57332738  0.75231097     0.81500
H626        H  0.24356604  0.44589895  0.81442200     0.79100
H627        H  0.21989174  0.49508872  0.64896030     0.42100
H628        H  0.27217884  0.53468556  0.64894855     0.41100
H629        H  0.34969862  0.50992817  0.72662833     0.40800
H630        H  0.35004281  0.52551125  0.78043744     0.38700
H631        H  0.26548415  0.52301454  0.85460575     0.41800
H632        H  0.20827631  0.48213228  0.85558976     0.36600
H633        H  0.13874211  0.52567939  0.77358813     0.42700
H634        H  0.13694715  0.49169301  0.68878315     0.39200
H635        H  0.34983306  0.52301668  0.81520742     0.44100
H636        H  0.17686367  0.50692722  0.85464859     0.42800
H637        H  0.13777446  0.48027555  0.72267988     0.42900
H638        H  0.30398017  0.51126411  0.64719602     0.43300
O639        O  0.44149548  0.43174710  0.94110215    -0.75600
O640        O  0.46370490  0.37665857  0.96845165    -0.54500
C641        C  0.44556208  0.38950197  0.94763332     0.78100
O642        O  0.05529174  0.58928914  0.93889724    -0.60200
O643        O  0.03111541  0.64127009  0.96804550    -0.53200
C644        C  0.04908683  0.63045350  0.94679477     0.70200
O645        O  0.05653173  0.43641046  0.93807720    -0.74700
O646        O  0.03185712  0.38135074  0.96458473    -0.55300
C647        C  0.05059195  0.39474991  0.94451832     0.76200
O648        O  0.43888898  0.58599584  0.94376389    -0.59900
O649        O  0.46470354  0.63986069  0.97082156    -0.53000
C650        C  0.44489952  0.62761087  0.95100490     0.72800
Zr651      Zr  0.45270230  0.50917527  0.95910769     2.54700
O652        O  0.44296978  0.51041407  0.90587559    -0.80500
O653        O  0.39872007  0.50927954  0.97036610    -0.93900
Zr654      Zr  0.04210485  0.51161924  0.95492676     2.64700
O655        O  0.03747645  0.51025051  0.90103252    -0.98800
O656        O  0.09740850  0.51322029  0.95483758    -0.80900
O657        O  0.49749678  0.46562749  0.95598525    -0.84200
O658        O  0.49740124  0.55461929  0.95706898    -2.19000
O659        O  0.43913885  0.58584902  0.55787882    -0.67600
O660        O  0.46426790  0.63999620  0.53166604    -0.52200
C661        C  0.44377343  0.62749758  0.55014365     0.71100
O662        O  0.05815261  0.42862958  0.55800352    -0.60500
O663        O  0.03022363  0.37523051  0.53320237    -0.52500
C664        C  0.04963816  0.38700058  0.55331058     0.72900
O665        O  0.06480818  0.58094174  0.55955908    -0.71900
O666        O  0.03504591  0.63556601  0.53817505    -0.50600
C667        C  0.05649321  0.62235055  0.55601096     0.74300
O668        O  0.44411297  0.43354264  0.56308694    -0.67300
O669        O  0.46623756  0.37895932  0.53438478    -0.54500
C670        C  0.44864965  0.39191908  0.55553110     0.72700
Zr671      Zr  0.45797889  0.50936809  0.54682542     2.77500
O672        O  0.46520448  0.51538913  0.60031941    -0.98000
O673        O  0.40311903  0.50597064  0.55188102    -0.78800
Zr674      Zr  0.04775389  0.50686735  0.54199916     2.70100
O675        O  0.05511568  0.51239485  0.59542670    -0.80100
O676        O  0.10218266  0.50055941  0.53395721    -0.99200
Zr677      Zr  0.49903493  0.42022183  0.49988392     2.21500
Zr678      Zr  0.50058123  0.59779218  0.50215976     2.11100
O679        O  0.50329360  0.55252850  0.54592858    -2.47900
O680        O  0.50223852  0.46374478  0.54472414    -0.79900
O681        O  0.45508457  0.55360210  0.50332977    -0.72100
O682        O  0.04520416  0.46415991  0.49759311    -2.33000
O683        O  0.45389640  0.46458976  0.50279354    -2.29200
O684        O  0.04612669  0.55439369  0.49939476    -0.73800
H685        H  0.49642405  0.57429505  0.93997069     0.78200
H686        H  0.06273150  0.44465897  0.49665853     0.79300
H687        H  0.50415503  0.57126978  0.56355634     0.81500
H688        H  0.43612663  0.44516276  0.50347045     0.79100
H689        H  0.10303366  0.54040258  0.96677952     0.42100
H690        H  0.10778124  0.52884802  0.52346219     0.41100
H691        H  0.03502431  0.52138505  0.60311987     0.40800
H692        H  0.44500794  0.50804488  0.60859059     0.38700
H693        H  0.39530303  0.50482810  0.53123290     0.41800
H694        H  0.39372813  0.47760920  0.97595563     0.36600
H695        H  0.46343491  0.51000369  0.89695217     0.42700
H696        H  0.02153378  0.53279379  0.89636229     0.39200
H697        H  0.47799050  0.48896536  0.60556942     0.44100
H698        H  0.38851082  0.51370433  0.95094978     0.42800
H699        H  0.05654107  0.52434497  0.89392093     0.42900
H700        H  0.11137523  0.50411987  0.55397841     0.43300
C701        C  0.36992060  0.25979395  0.87349246    -0.02800
O702        O  0.30976110  0.09158031  0.94483111    -0.75600
O703        O  0.28295416  0.14460391  0.97082849    -0.54500
C704        C  0.30298276  0.13282153  0.95160151     0.78100
O705        O  0.18588394  0.93601807  0.94518800    -0.60200
O706        O  0.21301033  0.88333727  0.97111525    -0.53200
C707        C  0.19237218  0.89481686  0.95229114     0.70200
O708        O  0.18791273  0.08821088  0.94272318    -0.74700
O709        O  0.21569902  0.14319853  0.96650279    -0.55300
C710        C  0.19527817  0.12998811  0.94754515     0.76200
O711        O  0.30997864  0.94034176  0.94382099    -0.59900
O712        O  0.28335507  0.88589893  0.96887216    -0.53000
C713        C  0.30329977  0.89877489  0.94973760     0.72800
Zr714      Zr  0.29387370  0.01535840  0.95953425     2.54700
O715        O  0.29427520  0.01616642  0.90554019    -0.80500
O716        O  0.34902733  0.01539140  0.96457184    -0.93900
Zr717      Zr  0.20371289  0.01268852  0.95742799     2.64700
O718        O  0.20694988  0.00744009  0.90364559    -0.98800
O719        O  0.14848415  0.01577995  0.95602819    -0.80900
O720        O  0.24846396  0.05842012  0.95761784    -0.84200
O721        O  0.24904748  0.96977382  0.95725676    -2.19000
O722        O  0.30699243  0.93617327  0.56152274    -0.67600
O723        O  0.27855587  0.88379070  0.53618811    -0.52200
C724        C  0.29874908  0.89475178  0.55569138     0.71100
O725        O  0.18598324  0.09021350  0.55945585    -0.60500
O726        O  0.21265466  0.14387856  0.53369199    -0.52500
C727        C  0.19261342  0.13165594  0.55278845     0.72900
O728        O  0.18595691  0.93702420  0.55756620    -0.71900
O729        O  0.21312245  0.88377035  0.53210567    -0.50600
C730        C  0.19274113  0.89571885  0.55084916     0.74300
O731        O  0.30826894  0.09000749  0.56172028    -0.67300
O732        O  0.27944583  0.14356509  0.53836805    -0.54500
C733        C  0.30027916  0.13143493  0.55699009     0.72700
Zr734      Zr  0.29185857  0.01370799  0.54724164     2.77500
O735        O  0.28227512  0.01718125  0.60017446    -0.98000
O736        O  0.34693363  0.01380468  0.55247662    -0.78800
Zr737      Zr  0.20222069  0.01388726  0.54491248     2.70100
O738        O  0.20573644  0.01133805  0.59884722    -0.80100
O739        O  0.14693780  0.01536690  0.54420463    -0.99200
Zr740      Zr  0.24784076  0.10254417  0.50221020     2.21500
Zr741      Zr  0.24820389  0.92626561  0.50134187     2.11100
O742        O  0.24694237  0.96933210  0.54620393    -2.47900
O743        O  0.24718445  0.05862592  0.54655381    -0.79900
O744        O  0.29391459  0.97003915  0.50301203    -0.72100
O745        O  0.20235833  0.05776945  0.50101422    -2.33000
O746        O  0.29344747  0.05903000  0.50376261    -2.29200
O747        O  0.20244971  0.96917916  0.50096082    -0.73800
H748        H  0.24929253  0.95003297  0.94004723     0.78200
H749        H  0.18459061  0.07688931  0.50052054     0.79300
H750        H  0.24642169  0.94951836  0.56321869     0.81500
H751        H  0.31107906  0.07873260  0.50448387     0.79100
H752        H  0.14243646  0.01438264  0.97708658     0.42100
H753        H  0.14096606  0.99292205  0.52876002     0.41100
H754        H  0.21392138  0.04153751  0.60476061     0.40800
H755        H  0.26857165  0.99126526  0.60436852     0.38700
H756        H  0.35439800  0.01300340  0.53183733     0.41800
H757        H  0.35387005  0.04151064  0.97776931     0.36600
H758        H  0.27272737  0.02025814  0.89969799     0.42700
H759        H  0.21868798  0.97950045  0.89964774     0.39200
H760        H  0.30194642  0.00928512  0.60957005     0.44100
H761        H  0.35647036  0.02479100  0.94485508     0.42800
H762        H  0.18599914  0.99982767  0.89702389     0.42900
H763        H  0.14086246  0.00120803  0.56315081     0.43300
C764        C  0.12342772  0.76275455  0.87877181    -0.02800
O765        O  0.43263477  0.08142523  0.69346480    -0.75600
O766        O  0.46066271  0.13513892  0.71849015    -0.54500
C767        C  0.44026162  0.12303949  0.69939357     0.78100
O768        O  0.43797373  0.92994502  0.81247258    -0.60200
O769        O  0.46126805  0.87509803  0.78478267    -0.53200
C770        C  0.44338234  0.88845365  0.80559742     0.70200
O771        O  0.43902706  0.08082290  0.81266049    -0.74700
O772        O  0.46349672  0.13473764  0.78626525    -0.55300
C773        C  0.44557883  0.12267360  0.80738000     0.76200
O774        O  0.43591947  0.92685663  0.68942354    -0.59900
O775        O  0.46333168  0.87359279  0.71440273    -0.53000
C776        C  0.44413906  0.88544293  0.69426767     0.72800
Zr777      Zr  0.44649533  0.00370923  0.70850407     2.54700
O778        O  0.39213099  0.00063195  0.71779864    -0.80500
O779        O  0.43740225  0.00238329  0.65518641    -0.93900
Zr780      Zr  0.45186232  0.00462975  0.79546621     2.64700
O781        O  0.39652329  0.00448668  0.79603716    -0.98800
O782        O  0.45717248  0.00396476  0.84925448    -0.80900
O783        O  0.44834083  0.04937412  0.75205082    -0.84200
O784        O  0.44863788  0.95868910  0.75195843    -2.19000
O785        O  0.05177897  0.92736510  0.69156191    -0.67600
O786        O  0.02517918  0.87222698  0.71497587    -0.52200
C787        C  0.04522233  0.88528674  0.69616839     0.71100
O788        O  0.05525464  0.08114407  0.80797377    -0.60500
O789        O  0.02749583  0.13468326  0.78336877    -0.52500
C790        C  0.04767133  0.12252576  0.80252483     0.72900
O791        O  0.05417779  0.92723093  0.80705407    -0.71900
O792        O  0.03103275  0.87211415  0.77943707    -0.50600
C793        C  0.05035441  0.88523688  0.79937907     0.74300
O794        O  0.04992153  0.07966951  0.68792882    -0.67300
O795        O  0.02541973  0.13389029  0.71390999    -0.54500
C796        C  0.04345704  0.12147746  0.69296128     0.72700
Zr797      Zr  0.03605841  0.00409768  0.70470197     2.77500
O798        O  0.09114543  0.00777940  0.70052125    -0.98000
O799        O  0.02697275  0.00178417  0.65138221    -0.78800
Zr800      Zr  0.04118060  0.00460999  0.79187137     2.70100
O801        O  0.09569083  0.00938301  0.78379339    -0.80100
O802        O  0.04720466  0.00357565  0.84561376    -0.99200
Zr803      Zr  0.99402717  0.09284584  0.75008608     2.21500
Zr804      Zr  0.49444047  0.91502464  0.75005261     2.11100
O805        O  0.03983325  0.95980021  0.74827090    -2.47900
O806        O  0.03954682  0.04941679  0.74823713    -0.79900
O807        O  0.49150139  0.95972950  0.70616356    -0.72100
O808        O  0.99660309  0.04879025  0.79428136    -2.33000
O809        O  0.99119762  0.04792788  0.70584978    -2.29200
O810        O  0.49650615  0.95973884  0.79439533    -0.73800
H811        H  0.43106314  0.93906411  0.75253445     0.78200
H812        H  0.99746340  0.06790462  0.81174902     0.79300
H813        H  0.05766041  0.94088138  0.74764178     0.81500
H814        H  0.99034331  0.06682343  0.68839632     0.79100
H815        H  0.47937455  0.00526549  0.85294185     0.42100
H816        H  0.03331155  0.97920612  0.85239192     0.41100
H817        H  0.09913854  0.03993769  0.77526505     0.40800
H818        H  0.09880166  0.98641542  0.71573282     0.38700
H819        H  0.00894191  0.98179730  0.64876774     0.41800
H820        H  0.45501592  0.01861723  0.64669297     0.36600
H821        H  0.38863823  0.02505186  0.73255611     0.42700
H822        H  0.39040993  0.97641238  0.78525562     0.39200
H823        H  0.09562652  0.99282205  0.68134581     0.44100
H824        H  0.41980158  0.02253465  0.65169529     0.42800
H825        H  0.39128298  0.99840562  0.81696696     0.42900
H826        H  0.06786374  0.99146941  0.84916269     0.43300
C827        C  0.36875210  0.75453817  0.62306447    -0.02800
C828        C  0.12143386  0.25781825  0.62803608    -0.02800
C829        C  0.37376817  0.26488817  0.62901548    -0.02800
C830        C  0.12485770  0.76361140  0.62479262    -0.02800
C831        C  0.11955647  0.25718186  0.87428256    -0.02800
C832        C  0.37091438  0.75890635  0.87882676    -0.02800
C833        C  0.07861012  0.19374474  0.80557718    -0.02100
C834        C  0.06351147  0.15837232  0.81994375     0.07500
C835        C  0.06547713  0.15475932  0.85081784    -0.02300
C836        C  0.08293568  0.18614122  0.86770657    -0.02300
C837        C  0.09961376  0.22298434  0.85392062     0.07700
C838        C  0.09874338  0.22270863  0.82146780    -0.02400
Br839      Br  0.12855339  0.24926143  0.79483033    -0.01000
Br840      Br  0.07334646  0.20005788  0.76284948    -0.01100
Br841      Br  0.07915285  0.17882864  0.91010155    -0.01000
Br842      Br  0.04053015  0.10923216  0.87031482    -0.01000
C843        C  0.07478480  0.23590023  0.66360419    -0.02100
C844        C  0.10056886  0.22196982  0.64589495     0.07500
C845        C  0.10406343  0.17336412  0.64372267    -0.02300
C846        C  0.08128344  0.14311974  0.65312308    -0.02300
C847        C  0.05928364  0.15673662  0.67385886     0.07700
C848        C  0.05481721  0.20393328  0.67722228    -0.02400
Br849      Br  0.01894006  0.22580667  0.69763821    -0.01000
Br850      Br  0.06764811  0.29754305  0.67557667    -0.01100
Br851      Br  0.07924691  0.08428935  0.63335386    -0.01000
Br852      Br  0.14179093  0.14154727  0.63894750    -0.01000
C853        C  0.41042439  0.82615410  0.87094969    -0.02100
C854        C  0.39036934  0.79202712  0.85759100     0.07500
C855        C  0.38759904  0.79496914  0.82513426    -0.02300
C856        C  0.40367332  0.82875046  0.80924359    -0.02300
C857        C  0.42657020  0.85429425  0.82283678     0.07700
C858        C  0.42983517  0.85336981  0.85355172    -0.02400
Br859      Br  0.46268108  0.88892977  0.87148895    -0.01000
Br860      Br  0.41728143  0.83445838  0.91302474    -0.01100
Br861      Br  0.39092872  0.84764323  0.76970298    -0.01000
Br862      Br  0.36012261  0.76190015  0.79844019    -0.01000
C863        C  0.08515539  0.77519522  0.66915688    -0.02100
C864        C  0.10472118  0.79367789  0.64652109     0.07500
C865        C  0.10477522  0.84220948  0.64486465    -0.02300
C866        C  0.07978105  0.86654833  0.65417946    -0.02300
C867        C  0.06301963  0.85104462  0.67857226     0.07700
C868        C  0.06691768  0.80476441  0.68680632    -0.02400
Br869      Br  0.04795155  0.78077627  0.72178367    -0.01000
Br870      Br  0.08128151  0.71025067  0.67642463    -0.01100
Br871      Br  0.07012315  0.92044589  0.63169010    -0.01000
Br872      Br  0.14090573  0.88012076  0.64424202    -0.01000
C873        C  0.40596272  0.82553706  0.62850321    -0.02100
C874        C  0.39001766  0.78796588  0.64254478     0.07500
C875        C  0.39504780  0.78438128  0.67432742    -0.02300
C876        C  0.41848260  0.80923911  0.68836854    -0.02300
C877        C  0.42961476  0.84919138  0.67557458     0.07700
C878        C  0.42447036  0.85609581  0.64519775    -0.02400
Br879      Br  0.44824121  0.90259517  0.62547508    -0.01000
Br880      Br  0.40652998  0.83566235  0.58604843    -0.01100
Br881      Br  0.43690007  0.78479935  0.72401981    -0.01000
Br882      Br  0.36771096  0.75958426  0.70388228    -0.01000
C883        C  0.40946045  0.19329729  0.63527817    -0.02100
C884        C  0.39283233  0.22986104  0.64949253     0.07500
C885        C  0.39287867  0.22807043  0.68195966    -0.02300
C886        C  0.40962920  0.19455919  0.69765181    -0.02300
C887        C  0.42465307  0.15973049  0.68264547     0.07700
C888        C  0.42495296  0.15961096  0.65169520    -0.02400
Br889      Br  0.45002126  0.11500242  0.63176346    -0.01000
Br890      Br  0.41586301  0.18912603  0.59302381    -0.01100
Br891      Br  0.41049021  0.19344701  0.74088979    -0.01000
Br892      Br  0.36682134  0.26146429  0.70872153    -0.01000
C893        C  0.09825693  0.86759045  0.82689801    -0.02100
C894        C  0.07094175  0.85148413  0.81455123     0.07500
C895        C  0.06545624  0.80435731  0.81645380    -0.02300
C896        C  0.08625872  0.77603486  0.83215232    -0.02300
C897        C  0.10689787  0.79494961  0.85425737     0.07700
C898        C  0.11332714  0.84344548  0.84959531    -0.02400
Br899      Br  0.14384228  0.88308085  0.86849735    -0.01000
Br900      Br  0.11846741  0.91871539  0.80792230    -0.01100
Br901      Br  0.08498582  0.71232357  0.82107505    -0.01000
Br902      Br  0.02920456  0.77767411  0.79890085    -0.01000
C903        C  0.32038134  0.16213176  0.60527848    -0.02100
C904        C  0.31664395  0.16715709  0.57455918     0.07500
C905        C  0.33026150  0.20444725  0.56060104    -0.02300
C906        C  0.35159839  0.23222674  0.57603712    -0.02300
C907        C  0.35351243  0.23149632  0.60839007     0.07700
C908        C  0.33639887  0.19505649  0.62218594    -0.02400
Br909      Br  0.32911460  0.19083787  0.66437158    -0.01000
Br910      Br  0.30025875  0.11208158  0.62519666    -0.01100
Br911      Br  0.38036517  0.25937686  0.54858035    -0.01000
Br912      Br  0.32065319  0.21654823  0.51929143    -0.01000
C913        C  0.19195520  0.19130379  0.59224439    -0.02100
C914        C  0.17681139  0.16792060  0.56934762     0.07500
C915        C  0.14684101  0.17959501  0.56256709    -0.02300
C916        C  0.13431396  0.21832338  0.57596029    -0.02300
C917        C  0.14401347  0.23208033  0.60515625     0.07700
C918        C  0.17541219  0.21917838  0.61208319    -0.02400
Br919      Br  0.19660861  0.22690866  0.64987251    -0.01000
Br920      Br  0.23493483  0.18046836  0.59795351    -0.01100
Br921      Br  0.12743454  0.26301569  0.54543631    -0.01000
Br922      Br  0.12564453  0.15017115  0.53004578    -0.01000
C923        C  0.14486978  0.85639053  0.56519944    -0.02100
C924        C  0.17648252  0.85963806  0.56710120     0.07500
C925        C  0.19228134  0.83318070  0.58769998    -0.02300
C926        C  0.17655855  0.80517960  0.60786673    -0.02300
C927        C  0.14412925  0.79720472  0.60460733     0.07700
C928        C  0.12877264  0.82541228  0.58298549    -0.02400
Br929      Br  0.08540928  0.82458411  0.57599641    -0.01000
Br930      Br  0.12349025  0.89492526  0.53746227    -0.01100
Br931      Br  0.20105650  0.78978261  0.64237509    -0.01000
Br932      Br  0.23603024  0.83975399  0.59021061    -0.01000
C933        C  0.35523571  0.79951467  0.93173085    -0.02100
C934        C  0.35234599  0.79449806  0.89938574     0.07500
C935        C  0.33379964  0.82934238  0.88532978    -0.02300
C936        C  0.31677246  0.86100308  0.90200874    -0.02300
C937        C  0.31992570  0.86358931  0.93276195     0.07700
C938        C  0.34124739  0.83624698  0.94686519    -0.02400
Br939      Br  0.35566343  0.85693392  0.98560700    -0.01000
Br940      Br  0.38053499  0.76475664  0.95892994    -0.01100
Br941      Br  0.28823986  0.90199106  0.88278310    -0.01000
Br942      Br  0.32582688  0.83300498  0.84327524    -0.01000
C943        C  0.16489696  0.20208573  0.94265075    -0.02100
C944        C  0.17854596  0.16424750  0.92943165     0.07500
C945        C  0.17346542  0.15606552  0.89906470    -0.02300
C946        C  0.15583275  0.18620710  0.88178387    -0.02300
C947        C  0.13975361  0.22417945  0.89493078     0.07700
C948        C  0.14256033  0.22726251  0.92713501    -0.02400
Br949      Br  0.11317479  0.25328658  0.95439488    -0.01000
Br950      Br  0.17588695  0.21886881  0.98298559    -0.01100
Br951      Br  0.15950929  0.17591024  0.83962499    -0.01000
Br952      Br  0.19433876  0.10588472  0.87987260    -0.01000
C953        C  0.33355946  0.82635990  0.61926874    -0.02100
C954        C  0.34796584  0.78861817  0.60430645     0.07500
C955        C  0.34291836  0.78706178  0.57243799    -0.02300
C956        C  0.32151468  0.81599300  0.55891586    -0.02300
C957        C  0.31347249  0.85713388  0.57275879     0.07700
C958        C  0.31932403  0.86170544  0.60332004    -0.02400
Br959      Br  0.30368402  0.91360973  0.62472208    -0.01000
Br960      Br  0.32902293  0.83006054  0.66181091    -0.01100
Br961      Br  0.30222369  0.79606375  0.52215598    -0.01000
Br962      Br  0.36799051  0.75806561  0.54276236    -0.01000
C963        C  0.12717872  0.82594963  0.91920491    -0.02100
C964        C  0.14279428  0.79368471  0.90046097     0.07500
C965        C  0.17529575  0.79078439  0.90467395    -0.02300
C966        C  0.19107250  0.82464068  0.92101385    -0.02300
C967        C  0.17535291  0.85798389  0.93692126     0.07700
C968        C  0.14352518  0.85700629  0.93730728    -0.02400
Br969      Br  0.12213167  0.90124737  0.96093331    -0.01000
Br970      Br  0.08345902  0.83373702  0.91846136    -0.01100
Br971      Br  0.23497655  0.82630700  0.92100490    -0.01000
Br972      Br  0.19939413  0.73720591  0.89655062    -0.01000
C973        C  0.43443770  0.20575604  0.82247815    -0.02100
C974        C  0.42994526  0.15846849  0.82624196     0.07500
C975        C  0.40787464  0.14525974  0.84700625    -0.02300
C976        C  0.38523443  0.17553602  0.85607326    -0.02300
C977        C  0.38923948  0.22409622  0.85414143     0.07700
C978        C  0.41476378  0.23790179  0.83619739    -0.02400
Br979      Br  0.42214307  0.29997393  0.82548622    -0.01000
Br980      Br  0.47020205  0.22773503  0.80195232    -0.01100
Br981      Br  0.34695616  0.14390496  0.85851317    -0.01000
Br982      Br  0.40951892  0.08733429  0.86739821    -0.01000
C983        C  0.30207521  0.19079944  0.91165047    -0.02100
C984        C  0.31806816  0.16918680  0.93447350     0.07500
C985        C  0.34823679  0.18190959  0.94010883    -0.02300
C986        C  0.36043166  0.22002837  0.92570567    -0.02300
C987        C  0.34903824  0.23312461  0.89707629     0.07700
C988        C  0.31753391  0.21922452  0.89137655    -0.02400
Br989      Br  0.29437047  0.22842075  0.85482563    -0.01000
Br990      Br  0.25941640  0.17624645  0.90634548    -0.01100
Br991      Br  0.37261391  0.26494337  0.95500466    -0.01000
Br992      Br  0.37149222  0.15256354  0.97091886    -0.01000
C993        C  0.06300128  0.30432748  0.56825760    -0.02100
C994        C  0.06268931  0.35162740  0.57381465     0.07500
C995        C  0.07276231  0.36588257  0.60180021    -0.02300
C996        C  0.09378075  0.33994014  0.61813461    -0.02300
C997        C  0.09800692  0.29159716  0.61127196     0.07700
C998        C  0.07668223  0.27445007  0.58928635    -0.02400
Br999      Br  0.06439802  0.21112836  0.58662250    -0.01000
Br1000     Br  0.04456955  0.27921569  0.53253708    -0.01100
Br1001     Br  0.11074758  0.37687451  0.65058343    -0.01000
Br1002     Br  0.05085242  0.41491278  0.62108436    -0.01000
C1003       C  0.07127779  0.72298293  0.60730553    -0.02100
C1004       C  0.10345883  0.73240803  0.60323554     0.07500
C1005       C  0.11612920  0.70861478  0.57831122    -0.02300
C1006       C  0.10318146  0.66789468  0.56767399    -0.02300
C1007       C  0.07296507  0.65732982  0.57384404     0.07700
C1008       C  0.05757426  0.68365624  0.59465256    -0.02400
Br1009     Br  0.01861245  0.66198483  0.60844956    -0.01000
Br1010     Br  0.04078048  0.76673120  0.61950296    -0.01100
Br1011     Br  0.12720947  0.62757911  0.54352710    -0.01000
Br1012     Br  0.13792709  0.73926661  0.54677455    -0.01000
C1013       C  0.43657468  0.70322181  0.57565168    -0.02100
C1014       C  0.42411035  0.66279140  0.56424277     0.07500
C1015       C  0.39314181  0.65394741  0.56913299    -0.02300
C1016       C  0.37544769  0.68361843  0.58678271    -0.02300
C1017       C  0.38899346  0.72205531  0.60240830     0.07700
C1018       C  0.42161654  0.72694088  0.59836441    -0.02400
Br1019     Br  0.45133009  0.75008275  0.62702622    -0.01000
Br1020     Br  0.47423580  0.72772752  0.56038263    -0.01100
Br1021     Br  0.33227523  0.67122826  0.58527615    -0.01000
Br1022     Br  0.37370535  0.60482983  0.54706861    -0.01000
C1023       C  0.10601215  0.72440397  0.93123358    -0.02100
C1024       C  0.09992843  0.73589201  0.90013023     0.07500
C1025       C  0.07153424  0.71827652  0.88926167    -0.02300
C1026       C  0.05908589  0.67836275  0.90146983    -0.02300
C1027       C  0.06491475  0.66825442  0.93130664     0.07700
C1028       C  0.08591079  0.69548223  0.94684028    -0.02400
Br1029     Br  0.08888040  0.68933117  0.98936937    -0.01000
Br1030     Br  0.14331517  0.73531852  0.95379217    -0.01100
Br1031     Br  0.02938797  0.64391883  0.87901765    -0.01000
Br1032     Br  0.03932714  0.75951837  0.87888706    -0.01000
C1033       C  0.44149136  0.69885648  0.92023505    -0.02100
C1034       C  0.42710362  0.66318786  0.93509466     0.07500
C1035       C  0.39552105  0.65883522  0.93282945    -0.02300
C1036       C  0.37819576  0.68940436  0.91551202    -0.02300
C1037       C  0.39218915  0.72531557  0.89819977     0.07700
C1038       C  0.42543905  0.72560057  0.89928803    -0.01200
Br1039     Br  0.45321435  0.75005290  0.86974009    -0.01000
Br1040     Br  0.48404177  0.71079261  0.92849376    -0.01100
Br1041     Br  0.33507014  0.68338924  0.92155937    -0.01000
Br1042     Br  0.37551844  0.61459886  0.95807242    -0.01000
C1043       C  0.05113605  0.33081498  0.90817669    -0.02100
C1044       C  0.06696452  0.35987770  0.92735042     0.07500
C1045       C  0.09855960  0.35861740  0.92841680    -0.02300
C1046       C  0.11470026  0.32787091  0.91042443    -0.02300
C1047       C  0.09935976  0.29207679  0.89344934     0.07700
C1048       C  0.06611010  0.29510820  0.89301132    -0.02400
Br1049     Br  0.03726526  0.25877624  0.86980674    -0.01000
Br1050     Br  0.00911254  0.34628422  0.89945951    -0.01100
Br1051     Br  0.15825799  0.33515805  0.91391247    -0.01000
Br1052     Br  0.11965886  0.39873812  0.95631204    -0.01000
C1053       C  0.42849740  0.29721457  0.60970140    -0.02100
C1054       C  0.39527632  0.29807758  0.60987635     0.07500
C1055       C  0.38182343  0.33428471  0.59237347    -0.02300
C1056       C  0.39939759  0.36177158  0.57335999    -0.02300
C1057       C  0.43092451  0.35748069  0.57225541     0.07700
C1058       C  0.44525982  0.32497282  0.58992873    -0.02400
Br1059     Br  0.48898784  0.32104115  0.58808601    -0.01000
Br1060     Br  0.45493433  0.26863631  0.63919922    -0.01100
Br1061     Br  0.37996076  0.40237555  0.54509398    -0.01000
Br1062     Br  0.33885399  0.34647642  0.58965607    -0.01000
C1063       C  0.41944729  0.27760376  0.90744184    -0.02100
C1064       C  0.39410696  0.29350907  0.88976433     0.07500
C1065       C  0.39182390  0.34242783  0.88874192    -0.02300
C1066       C  0.40331920  0.36933206  0.91182216    -0.02300
C1067       C  0.42802429  0.35456471  0.92926913     0.07700
C1068       C  0.43633861  0.30794865  0.92652518    -0.02400
Br1069     Br  0.46857507  0.28307554  0.95107802    -0.01000
Br1070     Br  0.43155978  0.21427458  0.90805087    -0.01100
Br1071     Br  0.38159959  0.42521149  0.91971533    -0.01000
Br1072     Br  0.38269062  0.37973906  0.85413694    -0.01000
C1073       C  0.31598777  0.72257613  0.86051806    -0.02100
C1074       C  0.34925351  0.72437478  0.85998695     0.07500
C1075       C  0.36305819  0.68882617  0.84219282    -0.02300
C1076       C  0.34569416  0.66056035  0.82294014    -0.02300
C1077       C  0.31402012  0.66200768  0.82277644     0.07700
C1078       C  0.29934979  0.69119570  0.84239146    -0.02400
Br1079     Br  0.25587363  0.68251043  0.84677126    -0.01000
Br1080     Br  0.28965308  0.75365735  0.88835027    -0.01100
Br1081     Br  0.36540760  0.62205651  0.79375505    -0.01000
Br1082     Br  0.40615412  0.67998613  0.83831808    -0.01000
C1083       C  0.18834310  0.32075904  0.83347618    -0.02100
C1084       C  0.17282994  0.35569378  0.81892160     0.07500
C1085       C  0.14124817  0.35852701  0.82114367    -0.02300
C1086       C  0.12475981  0.32617059  0.83754377    -0.02300
C1087       C  0.13979798  0.29061822  0.85441280     0.07700
C1088       C  0.17294435  0.29084480  0.85283019    -0.02400
Br1089     Br  0.20140854  0.26049974  0.87945241    -0.01000
Br1090     Br  0.23203944  0.31633288  0.82838512    -0.01100
Br1091     Br  0.08127259  0.32929322  0.83090912    -0.01000
Br1092     Br  0.12002895  0.40499774  0.79855128    -0.01000
C1093       C  0.36676601  0.33548021  0.66520536    -0.02100
C1094       C  0.35286299  0.29874204  0.64811944     0.07500
C1095       C  0.31967952  0.29742330  0.64901331    -0.02300
C1096       C  0.30355755  0.32329696  0.67014362    -0.02300
C1097       C  0.31798941  0.35810778  0.68622784     0.07700
C1098       C  0.34942829  0.36421219  0.68365338    -0.02400
Br1099     Br  0.36939482  0.40870809  0.70942010    -0.01000
Br1100     Br  0.41002937  0.34554222  0.66881931    -0.01100
Br1101     Br  0.26050990  0.31261437  0.67615973    -0.01000
Br1102     Br  0.29219159  0.27187698  0.61892156    -0.01000
C1103       C  0.17490499  0.65774764  0.64829775    -0.02100
C1104       C  0.17327617  0.65902890  0.67935736     0.07500
C1105       C  0.16006701  0.69680455  0.69298185    -0.02300
C1106       C  0.14960898  0.73387938  0.67598795    -0.02300
C1107       C  0.14621162  0.73034754  0.64405878     0.07700
C1108       C  0.16364591  0.69408781  0.63101498    -0.02400
Br1109     Br  0.18484559  0.70007021  0.59400960    -0.01000
Br1110     Br  0.19532807  0.60733287  0.62916103    -0.01100
Br1111     Br  0.14883205  0.79092169  0.69800287    -0.01000
Br1112     Br  0.15376580  0.69612008  0.73531617    -0.01000
C1113       C  0.29961953  0.69401005  0.66561549    -0.02100
C1114       C  0.31492588  0.66124373  0.68232765     0.07500
C1115       C  0.34643549  0.65670572  0.67922881    -0.02300
C1116       C  0.36298662  0.68485836  0.65968891    -0.02300
C1117       C  0.34850221  0.72099663  0.64314414     0.07700
C1118       C  0.31533572  0.72158245  0.64496056    -0.02400
Br1119     Br  0.28741980  0.74913812  0.61651466    -0.01000
Br1120     Br  0.25573331  0.69780746  0.66945872    -0.01100
Br1121     Br  0.40626771  0.67374768  0.65967556    -0.01000
Br1122     Br  0.36762615  0.61413984  0.70478974    -0.01000
C1123       C  0.31011027  0.35386873  0.85356222    -0.02100
C1124       C  0.31199674  0.35576848  0.82262933     0.07500
C1125       C  0.32869284  0.32280223  0.80737961    -0.02300
C1126       C  0.34435769  0.28829589  0.82276537    -0.02300
C1127       C  0.34738704  0.29022845  0.85463626     0.07700
C1128       C  0.32754160  0.32210362  0.86966031    -0.02400
Br1129     Br  0.32370726  0.32640335  0.91243596    -0.01000
Br1130     Br  0.28409670  0.39662477  0.87398025    -0.01100
Br1131     Br  0.35381379  0.23575079  0.79846234    -0.01000
Br1132     Br  0.33115192  0.32641039  0.76474093    -0.01000
C1133       C  0.17868981  0.70986979  0.81814589    -0.02100
C1134       C  0.17169827  0.66285781  0.81977302     0.07500
C1135       C  0.14933198  0.64950243  0.84024928    -0.02300
C1136       C  0.14038548  0.67898871  0.86297162    -0.02300
C1137       C  0.14322227  0.72744440  0.85995087     0.07700
C1138       C  0.16337275  0.74173553  0.83651161    -0.02400
Br1139     Br  0.17560430  0.80381695  0.83074376    -0.01000
Br1140     Br  0.20917223  0.73249879  0.79068228    -0.01100
Br1141     Br  0.13652326  0.64673261  0.89985692    -0.01000
Br1142     Br  0.12765795  0.59197133  0.83724937    -0.01000
C1143       C  0.16356731  0.31968038  0.63479589    -0.02100
C1144       C  0.14303078  0.28741595  0.64853169     0.07500
C1145       C  0.14536757  0.28363805  0.68044579    -0.02300
C1146       C  0.16148064  0.31694784  0.69704675    -0.02300
C1147       C  0.17860226  0.35051068  0.68281351     0.07700
C1148       C  0.18177412  0.34929541  0.65205383    -0.02400
Br1149     Br  0.21078396  0.39000044  0.63359428    -0.01000
Br1150     Br  0.16566071  0.32982563  0.59252434    -0.01100
Br1151     Br  0.16039682  0.31716469  0.73985320    -0.01000
Br1152     Br  0.13398596  0.23045103  0.70317948    -0.01000
O1153       O  0.68415490  0.43275054  0.31076997    -0.75600
O1154       O  0.70880024  0.37951419  0.28314123    -0.54500
C1155       C  0.68973179  0.39146840  0.30313440     0.78100
O1156       O  0.68131093  0.58173354  0.19243384    -0.60200
O1157       O  0.70887251  0.63670167  0.21689427    -0.53200
C1158       C  0.68850216  0.62351603  0.19778534     0.70200
O1159       O  0.68483356  0.42831381  0.19380488    -0.74700
O1160       O  0.71353900  0.37650845  0.21905622    -0.55300
C1161       C  0.69325754  0.38739605  0.19979606     0.76200
O1162       O  0.68505077  0.58536853  0.31145497    -0.59900
O1163       O  0.70697959  0.63851865  0.28243599    -0.53000
C1164       C  0.68880962  0.62681989  0.30328915     0.72800
Zr1165     Zr  0.69879374  0.50899955  0.29580957     2.54700
O1166       O  0.64355793  0.50813166  0.29241094    -0.80500
O1167       O  0.69790074  0.50969942  0.34984845    -0.93900
Zr1168     Zr  0.69778712  0.50651195  0.20827772     2.64700
O1169       O  0.64248673  0.50320769  0.20927822    -0.98800
O1170       O  0.69871971  0.50439560  0.15437967    -0.80900
O1171       O  0.69805307  0.46317134  0.25238742    -0.84200
O1172       O  0.69767507  0.55235644  0.25171785    -2.19000
O1173       O  0.80320607  0.58543386  0.31171451    -0.67600
O1174       O  0.77661738  0.63951456  0.28622144    -0.52200
C1175       C  0.79665470  0.62687033  0.30564398     0.71100
O1176       O  0.80477310  0.43441760  0.19468795    -0.60500
O1177       O  0.78055527  0.38022814  0.22185967    -0.52500
C1178       C  0.79991344  0.39295085  0.20222131     0.72900
O1179       O  0.80281344  0.58491941  0.19279860    -0.71900
O1180       O  0.77820721  0.63936028  0.21943125    -0.50600
C1181       C  0.79745810  0.62653363  0.19963459     0.74300
O1182       O  0.80325966  0.43381678  0.31263917    -0.67300
O1183       O  0.77666541  0.37987159  0.28649340    -0.54500
C1184       C  0.79633182  0.39227274  0.30622702     0.72700
Zr1185     Zr  0.78827734  0.50962057  0.29635585     2.77500
O1186       O  0.84347946  0.50587107  0.29658265    -0.98000
O1187       O  0.78568075  0.51203356  0.35023065    -0.78800
Zr1188     Zr  0.78734747  0.50955848  0.20825879     2.70100
O1189       O  0.84244506  0.51116848  0.20579424    -0.80100
O1190       O  0.78158067  0.50670445  0.15449767    -0.99200
Zr1191     Zr  0.74432141  0.42124472  0.25257631     2.21500
Zr1192     Zr  0.74303808  0.59769287  0.25159977     2.11100
O1193       O  0.78859335  0.55382744  0.25229317    -2.47900
O1194       O  0.78951333  0.46573321  0.25228747    -0.79900
O1195       O  0.74351560  0.55422611  0.29627668    -0.72100
O1196       O  0.74316886  0.46369220  0.20773248    -2.33000
O1197       O  0.74365222  0.46489429  0.29722450    -2.29200
O1198       O  0.74223457  0.55295494  0.20728625    -0.73800
H1199       H  0.67988485  0.57140664  0.25151601     0.78200
H1200       H  0.74354095  0.44388963  0.19057070     0.79300
H1201       H  0.80634513  0.57330708  0.25233564     0.81500
H1202       H  0.74366541  0.44567620  0.31454860     0.79100
H1203       H  0.71946534  0.49419903  0.14949210     0.42100
H1204       H  0.77266781  0.53641338  0.14908194     0.41100
H1205       H  0.84926745  0.51012911  0.22675852     0.40800
H1206       H  0.84980838  0.52562066  0.28002662     0.38700
H1207       H  0.76545030  0.52497636  0.35441910     0.41800
H1208       H  0.71176926  0.48496315  0.35592569     0.36600
H1209       H  0.63834216  0.53327229  0.27879341     0.42700
H1210       H  0.63642810  0.53018298  0.22099293     0.39200
H1211       H  0.84993379  0.52242913  0.31477825     0.44100
H1212       H  0.67737517  0.49836115  0.35493646     0.42800
H1213       H  0.63607581  0.51028068  0.18870151     0.42900
H1214       H  0.80262797  0.50812271  0.14697899     0.43300
O1215       O  0.94194867  0.43209186  0.44079713    -0.75600
O1216       O  0.96376105  0.37700088  0.46846150    -0.54500
C1217       C  0.94584915  0.38986390  0.44746232     0.78100
O1218       O  0.55556466  0.58901230  0.43854017    -0.60200
O1219       O  0.53167701  0.64098330  0.46793472    -0.53200
C1220       C  0.54952804  0.63019807  0.44658208     0.70200
O1221       O  0.55660810  0.43578325  0.43829611    -0.74700
O1222       O  0.53199313  0.38086224  0.46497026    -0.55300
C1223       C  0.55068406  0.39414406  0.44484260     0.76200
O1224       O  0.93911365  0.58621474  0.44399828    -0.59900
O1225       O  0.96497995  0.64012926  0.47093780    -0.53000
C1226       C  0.94513574  0.62785113  0.45116370     0.72800
Zr1227     Zr  0.95271002  0.50932213  0.45937019     2.54700
O1228       O  0.94105071  0.51166412  0.40651323    -0.80500
O1229       O  0.89889354  0.50829104  0.47136488    -0.93900
Zr1230     Zr  0.54245826  0.51135288  0.45487568     2.64700
O1231       O  0.53875008  0.50899222  0.40094601    -0.98800
O1232       O  0.59778070  0.51311668  0.45542394    -0.80900
O1233       O  0.99750937  0.46579502  0.45595049    -0.84200
O1234       O  0.99745128  0.55466838  0.45713079    -2.19000
O1235       O  0.93907738  0.58568655  0.05810898    -0.67600
O1236       O  0.96402104  0.63995756  0.03181820    -0.52200
C1237       C  0.94364903  0.62737437  0.05037007     0.71100
O1238       O  0.55771563  0.42867697  0.05826850    -0.60500
O1239       O  0.53001917  0.37518195  0.03331918    -0.52500
C1240       C  0.54931436  0.38700954  0.05352230     0.72900
O1241       O  0.56418377  0.58105944  0.05976690    -0.71900
O1242       O  0.53459224  0.63572975  0.03821840    -0.50600
C1243       C  0.55594512  0.62249787  0.05615526     0.74300
O1244       O  0.94390611  0.43309007  0.06289745    -0.67300
O1245       O  0.96622705  0.37854234  0.03431741    -0.54500
C1246       C  0.94855470  0.39146041  0.05541212     0.72700
Zr1247     Zr  0.95773994  0.50908441  0.04686324     2.77500
O1248       O  0.96593279  0.51425472  0.10025723    -0.98000
O1249       O  0.90294952  0.50553858  0.05258489    -0.78800
Zr1250     Zr  0.54736552  0.50687022  0.04210760     2.70100
O1251       O  0.55498019  0.51223941  0.09550386    -0.80100
O1252       O  0.60178428  0.50061009  0.03404955    -0.99200
Zr1253     Zr  0.99891159  0.42012875  0.99983987     2.21500
Zr1254     Zr  0.00019426  0.59781187  0.00228121     2.11100
O1255       O  0.00294722  0.55246584  0.04602380    -2.47900
O1256       O  0.00199880  0.46354086  0.04469310    -0.79900
O1257       O  0.95478175  0.55341888  0.00340147    -0.72100
O1258       O  0.54497681  0.46411528  0.99771394    -2.33000
O1259       O  0.95374474  0.46446987  0.00274419    -2.29200
O1260       O  0.54590791  0.55435870  0.99947239    -0.73800
H1261       H  0.99642676  0.57433157  0.44002843     0.78200
H1262       H  0.56251660  0.44463101  0.99683733     0.79300
H1263       H  0.00378627  0.57119024  0.06365964     0.81500
H1264       H  0.93598601  0.44501832  0.00339519     0.79100
H1265       H  0.60323259  0.54131957  0.46638854     0.42100
H1266       H  0.60697652  0.52732665  0.02177321     0.41100
H1267       H  0.53511066  0.52221531  0.10323290     0.40800
H1268       H  0.94648389  0.50388861  0.10886825     0.38700
H1269       H  0.89486457  0.50549534  0.03202107     0.41800
H1270       H  0.89413088  0.47634427  0.47646413     0.36600
H1271       H  0.96115495  0.51101917  0.39685970     0.42700
H1272       H  0.52563628  0.53500237  0.39561050     0.39200
H1273       H  0.98040275  0.48952329  0.10479531     0.44100
H1274       H  0.88839752  0.51332512  0.45216005     0.42800
H1275       H  0.55924706  0.51787856  0.39409587     0.42900
H1276       H  0.61108827  0.50733601  0.05368639     0.43300
C1277       C  0.87023084  0.26012058  0.37349032    -0.02800
O1278       O  0.80979294  0.09204987  0.44456327    -0.75600
O1279       O  0.78338723  0.14498827  0.47100517    -0.54500
C1280       C  0.80326932  0.13327096  0.45161962     0.78100
O1281       O  0.68605137  0.93647265  0.44522446    -0.60200
O1282       O  0.71352510  0.88374023  0.47071856    -0.53200
C1283       C  0.69274802  0.89527223  0.45207046     0.70200
O1284       O  0.68789692  0.08855412  0.44304285    -0.74700
O1285       O  0.71611999  0.14341272  0.46647102    -0.55300
C1286       C  0.69551225  0.13026218  0.44768734     0.76200
O1287       O  0.81004484  0.94058129  0.44334035    -0.59900
O1288       O  0.78373666  0.88612929  0.46867890    -0.53000
C1289       C  0.80354725  0.89898459  0.44940293     0.72800
Zr1290     Zr  0.79384122  0.01569921  0.45897358     2.54700
O1291       O  0.79307273  0.01650941  0.40496504    -0.80500
O1292       O  0.84910056  0.01622264  0.46215733    -0.93900
Zr1293     Zr  0.70371264  0.01304237  0.45758850     2.64700
O1294       O  0.70631856  0.00725146  0.40377498    -0.98800
O1295       O  0.64845085  0.01589261  0.45624767    -0.80900
O1296       O  0.74844550  0.05883704  0.45745242    -0.84200
O1297       O  0.74903361  0.97010800  0.45704890    -2.19000
O1298       O  0.80710115  0.93643617  0.06191154    -0.67600
O1299       O  0.77906034  0.88414957  0.03607913    -0.52200
C1300       C  0.79894503  0.89500801  0.05590893     0.71100
O1301       O  0.68648911  0.09056415  0.05966043    -0.60500
O1302       O  0.71254127  0.14419741  0.03333230    -0.52500
C1303       C  0.69275594  0.13200920  0.05268786     0.72900
O1304       O  0.68674677  0.93720892  0.05796555    -0.71900
O1305       O  0.71381987  0.88393157  0.03244012    -0.50600
C1306       C  0.69352568  0.89588645  0.05126904     0.74300
O1307       O  0.80792671  0.09064951  0.06168256    -0.67300
O1308       O  0.77907186  0.14401836  0.03817251    -0.54500
C1309       C  0.79978110  0.13201401  0.05694312     0.72700
Zr1310     Zr  0.79240687  0.01400638  0.04691029     2.77500
O1311       O  0.78333873  0.01731124  0.09993173    -0.98000
O1312       O  0.84745637  0.01425633  0.05262824    -0.78800
Zr1313     Zr  0.70281694  0.01417579  0.04526612     2.70100
O1314       O  0.70761223  0.01220801  0.09910456    -0.80100
O1315       O  0.64759849  0.01627590  0.04691773    -0.99200
Zr1316     Zr  0.74779541  0.10261790  0.00204435     2.21500
Zr1317     Zr  0.74849058  0.92660636  0.00136549     2.11100
O1318       O  0.74752660  0.96963327  0.04623844    -2.47900
O1319       O  0.74772309  0.05893784  0.04649317    -0.79900
O1320       O  0.79418724  0.97056644  0.00249571    -0.72100
O1321       O  0.70237073  0.05774886  0.00122359    -2.33000
O1322       O  0.79351438  0.05913277  0.00324647    -2.29200
O1323       O  0.70266294  0.96939657  0.00129754    -0.73800
H1324       H  0.74918464  0.95036914  0.43983592     0.78200
H1325       H  0.68456091  0.07678642  0.00083064     0.79300
H1326       H  0.74710799  0.94983332  0.06326177     0.81500
H1327       H  0.81114168  0.07885750  0.00386368     0.79100
H1328       H  0.64258200  0.02103683  0.47712779     0.42100
H1329       H  0.64079985  0.99433833  0.03148586     0.41100
H1330       H  0.71744147  0.04152551  0.10452415     0.40800
H1331       H  0.76929161  0.99181277  0.10410923     0.38700
H1332       H  0.85500011  0.00374729  0.03316032     0.41800
H1333       H  0.85432678  0.04323393  0.47442314     0.36600
H1334       H  0.77173284  0.02335812  0.39957508     0.42700
H1335       H  0.71847699  0.97973216  0.39974499     0.39200
H1336       H  0.80294735  0.00860332  0.10914140     0.44100
H1337       H  0.85580144  0.02427272  0.44193204     0.42800
H1338       H  0.68542043  0.99878886  0.39743406     0.42900
H1339       H  0.64230524  0.00166747  0.06594530     0.43300
C1340       C  0.62361413  0.76310078  0.37885574    -0.02800
O1341       O  0.93250054  0.08105839  0.19324817    -0.75600
O1342       O  0.96050413  0.13480761  0.21827461    -0.54500
C1343       C  0.94011198  0.12265132  0.19917917     0.78100
O1344       O  0.93787203  0.92994982  0.31212292    -0.60200
O1345       O  0.96132873  0.87504116  0.28463666    -0.53200
C1346       C  0.94336027  0.88844121  0.30533979     0.70200
O1347       O  0.93879318  0.08121156  0.31212166    -0.74700
O1348       O  0.96367676  0.13503519  0.28604198    -0.55300
C1349       C  0.94557392  0.12302967  0.30699976     0.76200
O1350       O  0.93560584  0.92675759  0.18958606    -0.59900
O1351       O  0.96315500  0.87368936  0.21458188    -0.53000
C1352       C  0.94386322  0.88540393  0.19451161     0.72800
Zr1353     Zr  0.94662490  0.00358848  0.20825527     2.54700
O1354       O  0.89204002  0.00010471  0.21622573    -0.80500
O1355       O  0.93932568  0.00233522  0.15470088    -0.93900
Zr1356     Zr  0.95161839  0.00482861  0.29526319     2.64700
O1357       O  0.89627962  0.00471105  0.29628305    -0.98800
O1358       O  0.95651385  0.00436060  0.34907437    -0.80900
O1359       O  0.94826264  0.04939758  0.25176046    -0.84200
O1360       O  0.94854949  0.95880711  0.25180443    -2.19000
O1361       O  0.55223192  0.92697183  0.19190610    -0.67600
O1362       O  0.52527231  0.87192829  0.21503243    -0.52200
C1363       C  0.54548896  0.88492691  0.19637271     0.71100
O1364       O  0.55538841  0.08066276  0.30816949    -0.60500
O1365       O  0.52782577  0.13431650  0.28346073    -0.52500
C1366       C  0.54793534  0.12207976  0.30267342     0.72900
O1367       O  0.55362238  0.92692956  0.30770300    -0.71900
O1368       O  0.53112442  0.87198936  0.27940137    -0.50600
C1369       C  0.55010511  0.88502796  0.29967571     0.74300
O1370       O  0.54989833  0.07917283  0.18770187    -0.67300
O1371       O  0.52570695  0.13342421  0.21389778    -0.54500
C1372       C  0.54358264  0.12098237  0.19282372     0.72700
Zr1373     Zr  0.53640022  0.00371273  0.20482971     2.77500
O1374       O  0.59145953  0.00789232  0.20031952    -0.98000
O1375       O  0.52803068  0.00057079  0.15144076    -0.78800
Zr1376     Zr  0.54119457  0.00426569  0.29194017     2.70100
O1377       O  0.59536184  0.00838277  0.28195550    -0.80100
O1378       O  0.54965527  0.00421098  0.34541547    -0.99200
Zr1379     Zr  0.49424762  0.09262024  0.25012677     2.21500
Zr1380     Zr  0.99438444  0.91517393  0.25007380     2.11100
O1381       O  0.53998827  0.95938510  0.24840558    -2.47900
O1382       O  0.53974232  0.04913626  0.24835218    -0.79900
O1383       O  0.99160595  0.95958271  0.20610255    -0.72100
O1384       O  0.49658154  0.04846385  0.29434139    -2.33000
O1385       O  0.49157853  0.04769594  0.20584973    -2.29200
O1386       O  0.99627607  0.95995195  0.29440542    -0.73800
H1387       H  0.93095733  0.93921370  0.25235983     0.78200
H1388       H  0.49740665  0.06750500  0.31184751     0.79300
H1389       H  0.55779527  0.94041582  0.24787422     0.81500
H1390       H  0.49075199  0.06659839  0.18839909     0.79100
H1391       H  0.97866846  0.00273493  0.35289660     0.42100
H1392       H  0.53499372  0.98160843  0.35314361     0.41100
H1393       H  0.59767477  0.03387302  0.26786647     0.40800
H1394       H  0.59925464  0.98421990  0.21391344     0.38700
H1395       H  0.50951137  0.98163194  0.14877635     0.41800
H1396       H  0.95733734  0.01829346  0.14677307     0.36600
H1397       H  0.88855600  0.02089785  0.23317757     0.42700
H1398       H  0.89009070  0.97464372  0.28818313     0.39200
H1399       H  0.59563939  0.99596758  0.18020064     0.44100
H1400       H  0.92197007  0.02270731  0.15063361     0.42800
H1401       H  0.89125851  0.00315491  0.31762107     0.42900
H1402       H  0.56982241  0.99005640  0.34829557     0.43300
C1403       C  0.86867224  0.75434942  0.12329436    -0.02800
C1404       C  0.62131070  0.25780613  0.12806481    -0.02800
C1405       C  0.87360664  0.26470122  0.12905221    -0.02800
C1406       C  0.62494510  0.76345450  0.12468053    -0.02800
C1407       C  0.61976524  0.25699141  0.37433454    -0.02800
C1408       C  0.87105279  0.75870921  0.37861785    -0.02800
C1409       C  0.57923715  0.19297509  0.30562950    -0.02100
C1410       C  0.56390269  0.15787559  0.32005324     0.07500
C1411       C  0.56574309  0.15448207  0.35094726    -0.02300
C1412       C  0.58318824  0.18592369  0.36780005    -0.02300
C1413       C  0.59995313  0.22263227  0.35397495     0.07700
C1414       C  0.59929952  0.22205968  0.32151832    -0.02400
Br1415     Br  0.62919024  0.24862697  0.29492700    -0.01000
Br1416     Br  0.57430967  0.19881813  0.26284556    -0.01100
Br1417     Br  0.57919456  0.17895806  0.41019118    -0.01000
Br1418     Br  0.54064784  0.10921180  0.37051631    -0.01000
C1419       C  0.57475641  0.23552303  0.16360475    -0.02100
C1420       C  0.60058171  0.22180303  0.14592504     0.07500
C1421       C  0.60438104  0.17325668  0.14388224    -0.02300
C1422       C  0.58172222  0.14272131  0.15321165    -0.02300
C1423       C  0.55942615  0.15623193  0.17373055     0.07700
C1424       C  0.55484513  0.20341932  0.17714336    -0.02400
Br1425     Br  0.51914086  0.22520927  0.19791496    -0.01000
Br1426     Br  0.56772249  0.29707076  0.17584748    -0.01100
Br1427     Br  0.58083472  0.08327324  0.13413448    -0.01000
Br1428     Br  0.64254712  0.14228535  0.13994373    -0.01000
C1429       C  0.91050429  0.82615871  0.37068253    -0.02100
C1430       C  0.89052168  0.79186480  0.35735904     0.07500
C1431       C  0.88778979  0.79473493  0.32489069    -0.02300
C1432       C  0.90377455  0.82860509  0.30898696    -0.02300
C1433       C  0.92659414  0.85428524  0.32257805     0.07700
C1434       C  0.92986263  0.85343999  0.35327552    -0.02400
Br1435     Br  0.96254547  0.88944501  0.37116068    -0.01000
Br1436     Br  0.91725153  0.83489906  0.41271511    -0.01100
Br1437     Br  0.89100219  0.84745679  0.26943950    -0.01000
Br1438     Br  0.86052352  0.76136726  0.29817381    -0.01000
C1439       C  0.58517427  0.77484102  0.16898937    -0.02100
C1440       C  0.60481905  0.79344840  0.14643488     0.07500
C1441       C  0.60496123  0.84196011  0.14491189    -0.02300
C1442       C  0.58003892  0.86630615  0.15436721    -0.02300
C1443       C  0.56323442  0.85069987  0.17870728     0.07700
C1444       C  0.56694241  0.80430938  0.18672296    -0.02400
Br1445     Br  0.54747181  0.77997034  0.22135372    -0.01000
Br1446     Br  0.58116850  0.70985100  0.17602675    -0.01100
Br1447     Br  0.57025727  0.92004282  0.13183254    -0.01000
Br1448     Br  0.64115826  0.87973650  0.14442113    -0.01000
C1449       C  0.90586249  0.82525308  0.12882102    -0.02100
C1450       C  0.88999196  0.78761009  0.14284236     0.07500
C1451       C  0.89517556  0.78385200  0.17461521    -0.02300
C1452       C  0.91849809  0.80896852  0.18866503    -0.02300
C1453       C  0.92937202  0.84908219  0.17589413     0.07700
C1454       C  0.92424577  0.85592804  0.14552215    -0.02400
Br1455     Br  0.94803203  0.90239389  0.12579151    -0.01000
Br1456     Br  0.90663543  0.83518369  0.08634932    -0.01100
Br1457     Br  0.93726735  0.78464316  0.22420052    -0.01000
Br1458     Br  0.86822322  0.75833102  0.20421438    -0.01000
C1459       C  0.90906908  0.19270654  0.13512503    -0.02100
C1460       C  0.89260544  0.22942527  0.14940385     0.07500
C1461       C  0.89281465  0.22769406  0.18186334    -0.02300
C1462       C  0.90947878  0.19405779  0.19750249    -0.02300
C1463       C  0.92445635  0.15925612  0.18245460     0.07700
C1464       C  0.92467742  0.15908877  0.15150666    -0.02400
Br1465     Br  0.94993186  0.11468253  0.13156564    -0.01000
Br1466     Br  0.91520128  0.18824543  0.09284806    -0.01100
Br1467     Br  0.91035676  0.19280606  0.24074475    -0.01000
Br1468     Br  0.86721578  0.26160616  0.20874179    -0.01000
C1469       C  0.59823863  0.86751621  0.32673527    -0.02100
C1470       C  0.57079606  0.85134425  0.31472792     0.07500
C1471       C  0.56537960  0.80422902  0.31669569    -0.02300
C1472       C  0.58633007  0.77602523  0.33228953    -0.02300
C1473       C  0.60709561  0.79508814  0.35422608     0.07700
C1474       C  0.61356026  0.84351039  0.34933032    -0.02400
Br1475     Br  0.64422370  0.88326627  0.36789634    -0.01000
Br1476     Br  0.61815962  0.91852209  0.30738120    -0.01100
Br1477     Br  0.58526432  0.71236418  0.32112209    -0.01000
Br1478     Br  0.52908130  0.77745857  0.29930262    -0.01000
C1479       C  0.81935176  0.16289806  0.10537670    -0.02100
C1480       C  0.81588737  0.16783202  0.07462160     0.07500
C1481       C  0.82977036  0.20488940  0.06067229    -0.02300
C1482       C  0.85123358  0.23237678  0.07613273    -0.02300
C1483       C  0.85315828  0.23154641  0.10847736     0.07700
C1484       C  0.83576675  0.19539844  0.12229690    -0.02400
Br1485     Br  0.82878944  0.19104054  0.16454674    -0.01000
Br1486     Br  0.79833786  0.11358385  0.12522779    -0.01100
Br1487     Br  0.88015612  0.25919666  0.04869024    -0.01000
Br1488     Br  0.82039496  0.21698302  0.01930248    -0.01000
C1489       C  0.69200051  0.19230013  0.09178884    -0.02100
C1490       C  0.67682404  0.16829128  0.06918218     0.07500
C1491       C  0.64661888  0.17922174  0.06279304    -0.02300
C1492       C  0.63397717  0.21795701  0.07608761    -0.02300
C1493       C  0.64385575  0.23214933  0.10511729     0.07700
C1494       C  0.67540086  0.21978935  0.11179426    -0.02400
Br1495     Br  0.69682152  0.22757459  0.14947891    -0.01000
Br1496     Br  0.73519545  0.18316183  0.09684383    -0.01100
Br1497     Br  0.62712120  0.26243829  0.04544625    -0.01000
Br1498     Br  0.62509377  0.14890790  0.03085342    -0.01000
C1499       C  0.64559856  0.85652183  0.06533427    -0.02100
C1500       C  0.67718167  0.85979415  0.06747512     0.07500
C1501       C  0.69280841  0.83321901  0.08812059    -0.02300
C1502       C  0.67693732  0.80484687  0.10800461    -0.02300
C1503       C  0.64447637  0.79701869  0.10458576     0.07700
C1504       C  0.62933835  0.82546138  0.08294458    -0.02400
Br1505     Br  0.58604453  0.82483890  0.07564536    -0.01000
Br1506     Br  0.62450744  0.89531373  0.03753534    -0.01100
Br1507     Br  0.70134452  0.78861638  0.14238503    -0.01000
Br1508     Br  0.73649257  0.84023636  0.09107180    -0.01000
C1509       C  0.85541827  0.79944987  0.43146083    -0.02100
C1510       C  0.85249652  0.79434525  0.39913350     0.07500
C1511       C  0.83395739  0.82915187  0.38503534    -0.02300
C1512       C  0.81700279  0.86095827  0.40168188    -0.02300
C1513       C  0.82020152  0.86371780  0.43243843     0.07700
C1514       C  0.84146196  0.83625936  0.44657045    -0.02400
Br1515     Br  0.85582705  0.85680634  0.48535154    -0.01000
Br1516     Br  0.88086733  0.76479608  0.45858812    -0.01100
Br1517     Br  0.78842030  0.90177230  0.38239510    -0.01000
Br1518     Br  0.82587528  0.83246281  0.34296552    -0.01000
C1519       C  0.66516731  0.20227231  0.44269319    -0.02100
C1520       C  0.67887107  0.16447261  0.42951954     0.07500
C1521       C  0.67381200  0.15614479  0.39917288    -0.02300
C1522       C  0.65624969  0.18626969  0.38183889    -0.02300
C1523       C  0.64000161  0.22409987  0.39497325     0.07700
C1524       C  0.64273173  0.22719679  0.42717694    -0.02400
Br1525     Br  0.61319043  0.25279750  0.45445665    -0.01000
Br1526     Br  0.67611940  0.21919556  0.48300111    -0.01100
Br1527     Br  0.66030979  0.17610126  0.33971679    -0.01000
Br1528     Br  0.69448349  0.10562705  0.38013057    -0.01000
C1529       C  0.83330289  0.82615853  0.11968286    -0.02100
C1530       C  0.84790088  0.78861313  0.10463290     0.07500
C1531       C  0.84291183  0.78717475  0.07275842    -0.02300
C1532       C  0.82159918  0.81618150  0.05921252    -0.02300
C1533       C  0.81340764  0.85720216  0.07309224     0.07700
C1534       C  0.81868164  0.86130842  0.10378099    -0.02400
Br1535     Br  0.80115522  0.91175739  0.12525450    -0.01000
Br1536     Br  0.82915557  0.82975435  0.16229974    -0.01100
Br1537     Br  0.80207934  0.79592571  0.02264575    -0.01000
Br1538     Br  0.86778054  0.75787797  0.04303587    -0.01000
C1539       C  0.62747236  0.82676433  0.41896311    -0.02100
C1540       C  0.64302456  0.79416210  0.40042964     0.07500
C1541       C  0.67551310  0.79105227  0.40473602    -0.02300
C1542       C  0.69136477  0.82490822  0.42099402    -0.02300
C1543       C  0.67569870  0.85854441  0.43669108     0.07700
C1544       C  0.64386558  0.85790943  0.43694721    -0.02400
Br1545     Br  0.62253794  0.90255507  0.46037410    -0.01000
Br1546     Br  0.58378536  0.83475503  0.41815696    -0.01100
Br1547     Br  0.73529816  0.82605566  0.42120086    -0.01000
Br1548     Br  0.69951226  0.73730441  0.39676161    -0.01000
C1549       C  0.93441597  0.20613164  0.32204394    -0.02100
C1550       C  0.93005077  0.15883938  0.32591614     0.07500
C1551       C  0.90825518  0.14558180  0.34693156    -0.02300
C1552       C  0.88564558  0.17577172  0.35620277    -0.02300
C1553       C  0.88949510  0.22437434  0.35411205     0.07700
C1554       C  0.91484161  0.23823019  0.33594007    -0.02400
Br1555     Br  0.92217494  0.30033161  0.32526620    -0.01000
Br1556     Br  0.96985346  0.22823110  0.30102765    -0.01100
Br1557     Br  0.84759132  0.14375260  0.35964300    -0.01000
Br1558     Br  0.91029048  0.08764309  0.36731348    -0.01000
C1559       C  0.80237949  0.19153452  0.41188124    -0.02100
C1560       C  0.81840725  0.16969834  0.43458527     0.07500
C1561       C  0.84868976  0.18207107  0.44002202    -0.02300
C1562       C  0.86092415  0.22019858  0.42565286    -0.02300
C1563       C  0.84941348  0.23350349  0.39712359     0.07700
C1564       C  0.81786855  0.21974429  0.39151574    -0.02400
Br1565     Br  0.79474936  0.22854830  0.35491557    -0.01000
Br1566     Br  0.75963017  0.17743787  0.40676934    -0.01100
Br1567     Br  0.87308688  0.26503573  0.45498738    -0.01000
Br1568     Br  0.87213571  0.15222210  0.47046878    -0.01000
C1569       C  0.56279958  0.30434268  0.06841151    -0.02100
C1570       C  0.56238161  0.35163095  0.07403026     0.07500
C1571       C  0.57242009  0.36583270  0.10204267    -0.02300
C1572       C  0.59348462  0.33989754  0.11834152    -0.02300
C1573       C  0.59778916  0.29158272  0.11140729     0.07700
C1574       C  0.57647229  0.27444982  0.08943093    -0.02400
Br1575     Br  0.56411904  0.21114634  0.08685221    -0.01000
Br1576     Br  0.54458848  0.27923978  0.03259316    -0.01100
Br1577     Br  0.61051456  0.37681999  0.15076568    -0.01000
Br1578     Br  0.55049722  0.41481823  0.12135987    -0.01000
C1579       C  0.57117404  0.72337382  0.10718926    -0.02100
C1580       C  0.60338358  0.73248534  0.10308739     0.07500
C1581       C  0.61585466  0.70858748  0.07813108    -0.02300
C1582       C  0.60274876  0.66790773  0.06757318    -0.02300
C1583       C  0.57253970  0.65749367  0.07389766     0.07700
C1584       C  0.55731734  0.68402060  0.09472248    -0.02400
Br1585     Br  0.51846552  0.66257199  0.10890043    -0.01000
Br1586     Br  0.54088279  0.76763359  0.11906329    -0.01100
Br1587     Br  0.62654139  0.62739038  0.04334055    -0.01000
Br1588     Br  0.63744610  0.73924971  0.04649457    -0.01000
C1589       C  0.93638817  0.70321158  0.07570292    -0.02100
C1590       C  0.92399805  0.66264165  0.06445419     0.07500
C1591       C  0.89304958  0.65377380  0.06929037    -0.02300
C1592       C  0.87533288  0.68340681  0.08694383    -0.02300
C1593       C  0.88885968  0.72191935  0.10254606     0.07700
C1594       C  0.92146236  0.72689187  0.09843103    -0.02400
Br1595     Br  0.95123991  0.74981828  0.12708918    -0.01000
Br1596     Br  0.97382301  0.72804684  0.06014814    -0.01100
Br1597     Br  0.83219649  0.67080595  0.08544921    -0.01000
Br1598     Br  0.87371835  0.60487784  0.04692171    -0.01000
C1599       C  0.60607809  0.72494550  0.43132866    -0.02100
C1600       C  0.60007238  0.73637006  0.40022628     0.07500
C1601       C  0.57175328  0.71861249  0.38929130    -0.02300
C1602       C  0.55943640  0.67847535  0.40135907    -0.02300
C1603       C  0.56534428  0.66812975  0.43115199     0.07700
C1604       C  0.58608834  0.69567921  0.44680786    -0.02400
Br1605     Br  0.58874383  0.68989130  0.48936500    -0.01000
Br1606     Br  0.64321675  0.73634857  0.45403071    -0.01100
Br1607     Br  0.52946925  0.64439149  0.37901199    -0.01000
Br1608     Br  0.53946930  0.75991666  0.37927955    -0.01000
C1609       C  0.94155409  0.69907291  0.42032013    -0.02100
C1610       C  0.92726055  0.66334567  0.43521357     0.07500
C1611       C  0.89569345  0.65871722  0.43282583    -0.02300
C1612       C  0.87831730  0.68905947  0.41535114    -0.02300
C1613       C  0.89226539  0.72507582  0.39804683     0.07700
C1614       C  0.92548574  0.72555810  0.39924355    -0.01200
Br1615     Br  0.95319751  0.74984453  0.36961092    -0.01000
Br1616     Br  0.98397785  0.71158301  0.42874487    -0.01100
Br1617     Br  0.83517909  0.68227514  0.42098865    -0.01000
Br1618     Br  0.87577463  0.61433505  0.45805787    -0.01000
C1619       C  0.55126796  0.33035530  0.40835008    -0.02100
C1620       C  0.56704308  0.35920159  0.42771550     0.07500
C1621       C  0.59862792  0.35796496  0.42881148    -0.02300
C1622       C  0.61480059  0.32752661  0.41062865    -0.02300
C1623       C  0.59951985  0.29182725  0.39350878     0.07700
C1624       C  0.56627667  0.29481661  0.39304306    -0.02400
Br1625     Br  0.53748939  0.25856508  0.36970434    -0.01000
Br1626     Br  0.50932305  0.34600575  0.39950056    -0.01100
Br1627     Br  0.65830635  0.33515674  0.41409273    -0.01000
Br1628     Br  0.61966947  0.39781764  0.45692821    -0.01000
C1629       C  0.92836330  0.29675688  0.10967629    -0.02100
C1630       C  0.89515341  0.29777016  0.10988498     0.07500
C1631       C  0.88175907  0.33409184  0.09243852    -0.02300
C1632       C  0.89932680  0.36136464  0.07330262    -0.02300
C1633       C  0.93084725  0.35700559  0.07217169     0.07700
C1634       C  0.94517116  0.32463676  0.08998880    -0.02400
Br1635     Br  0.98894428  0.32135635  0.08865204    -0.01000
Br1636     Br  0.95468668  0.26785420  0.13912361    -0.01100
Br1637     Br  0.87985844  0.40192446  0.04501476    -0.01000
Br1638     Br  0.83886456  0.34685373  0.08998091    -0.01000
C1639       C  0.91982160  0.27802438  0.40726563    -0.02100
C1640       C  0.89444745  0.29389488  0.38963405     0.07500
C1641       C  0.89217112  0.34282677  0.38854859    -0.02300
C1642       C  0.90368745  0.36973343  0.41160347    -0.02300
C1643       C  0.92836964  0.35496020  0.42906222     0.07700
C1644       C  0.93668138  0.30835889  0.42635739    -0.02400
Br1645     Br  0.96882388  0.28347533  0.45102245    -0.01000
Br1646     Br  0.93212984  0.21479373  0.40771010    -0.01100
Br1647     Br  0.88178809  0.42534968  0.41972675    -0.01000
Br1648     Br  0.88292033  0.38018603  0.35396995    -0.01000
C1649       C  0.81611869  0.72249490  0.36033866    -0.02100
C1650       C  0.84938330  0.72419581  0.35980312     0.07500
C1651       C  0.86316152  0.68849999  0.34211826    -0.02300
C1652       C  0.84576878  0.66004993  0.32302267    -0.02300
C1653       C  0.81409244  0.66166600  0.32281444     0.07700
C1654       C  0.79943655  0.69115278  0.34224222    -0.02400
Br1655     Br  0.75587558  0.68301682  0.34640457    -0.01000
Br1656     Br  0.78985663  0.75347319  0.38828089    -0.01100
Br1657     Br  0.86547960  0.62102358  0.29412352    -0.01000
Br1658     Br  0.90625863  0.67957165  0.33824826    -0.01000
C1659       C  0.68846194  0.32099636  0.33380751    -0.02100
C1660       C  0.67284945  0.35551341  0.31898000     0.07500
C1661       C  0.64124454  0.35795276  0.32086580    -0.02300
C1662       C  0.62481233  0.32570819  0.33740022    -0.02300
C1663       C  0.63993676  0.29048359  0.35449149     0.07700
C1664       C  0.67309362  0.29102060  0.35311213    -0.02400
Br1665     Br  0.70156676  0.26107275  0.37994039    -0.01000
Br1666     Br  0.73223011  0.31725170  0.32906465    -0.01100
Br1667     Br  0.58134437  0.32842744  0.33062977    -0.01000
Br1668     Br  0.62003442  0.40357245  0.29753581    -0.01000
C1669       C  0.86680240  0.33551149  0.16522012    -0.02100
C1670       C  0.85284159  0.29870578  0.14821128     0.07500
C1671       C  0.81966567  0.29750405  0.14915349    -0.02300
C1672       C  0.80361522  0.32330377  0.17034640    -0.02300
C1673       C  0.81805021  0.35823596  0.18630773     0.07700
C1674       C  0.84949581  0.36428413  0.18370015    -0.02400
Br1675     Br  0.86949276  0.40862760  0.20954776    -0.01000
Br1676     Br  0.91007994  0.34578021  0.16856871    -0.01100
Br1677     Br  0.76064885  0.31225043  0.17659380    -0.01000
Br1678     Br  0.79206170  0.27268777  0.11890130    -0.01000
C1679       C  0.67478961  0.65747845  0.14856882    -0.02100
C1680       C  0.67293969  0.65882533  0.17962153     0.07500
C1681       C  0.65976561  0.69673611  0.19311257    -0.02300
C1682       C  0.64948012  0.73377525  0.17598978    -0.02300
C1683       C  0.64608753  0.73004524  0.14405886     0.07700
C1684       C  0.66343903  0.69362662  0.13113387    -0.02400
Br1685     Br  0.68414542  0.69916106  0.09385041    -0.01000
Br1686     Br  0.69588356  0.60742829  0.12974149    -0.01100
Br1687     Br  0.64901604  0.79100103  0.19781589    -0.01000
Br1688     Br  0.65356802  0.69654733  0.23546207    -0.01000
C1689       C  0.79954914  0.69396979  0.16585335    -0.02100
C1690       C  0.81483326  0.66118361  0.18257887     0.07500
C1691       C  0.84632136  0.65641284  0.17931029    -0.02300
C1692       C  0.86285860  0.68440322  0.15966199    -0.02300
C1693       C  0.84841565  0.72074479  0.14328691     0.07700
C1694       C  0.81526645  0.72142775  0.14513739    -0.02400
Br1695     Br  0.78739543  0.74874153  0.11654808    -0.01000
Br1696     Br  0.75567829  0.69787090  0.16968913    -0.01100
Br1697     Br  0.90609328  0.67278299  0.15926648    -0.01000
Br1698     Br  0.86757171  0.61386148  0.20482112    -0.01000
C1699       C  0.81044389  0.35429103  0.35371960    -0.02100
C1700       C  0.81226322  0.35610378  0.32277272     0.07500
C1701       C  0.82886681  0.32304861  0.30751105    -0.02300
C1702       C  0.84451147  0.28854227  0.32288784    -0.02300
C1703       C  0.84764289  0.29055905  0.35472821     0.07700
C1704       C  0.82784957  0.32246952  0.36979582    -0.02400
Br1705     Br  0.82396074  0.32660398  0.41257931    -0.01000
Br1706     Br  0.78452558  0.39715689  0.37417576    -0.01100
Br1707     Br  0.85358884  0.23570483  0.29871392    -0.01000
Br1708     Br  0.83117671  0.32641500  0.26485842    -0.01000
C1709       C  0.67850271  0.70977970  0.31819808    -0.02100
C1710       C  0.67149138  0.66278453  0.32001553     0.07500
C1711       C  0.64926713  0.64958157  0.34067235    -0.02300
C1712       C  0.64048096  0.67923109  0.36335566    -0.02300
C1713       C  0.64336640  0.72764108  0.36017590     0.07700
C1714       C  0.66347502  0.74175228  0.33668458    -0.02400
Br1715     Br  0.67626311  0.80363497  0.33119710    -0.01000
Br1716     Br  0.70862457  0.73230267  0.29031421    -0.01100
Br1717     Br  0.63715728  0.64733570  0.40043002    -0.01000
Br1718     Br  0.62756850  0.59206215  0.33797721    -0.01000
C1719       C  0.66333158  0.31984719  0.13469358    -0.02100
C1720       C  0.64292870  0.28744406  0.14849874     0.07500
C1721       C  0.64547894  0.28349452  0.18038812    -0.02300
C1722       C  0.66180224  0.31660524  0.19695672    -0.02300
C1723       C  0.67878785  0.35029840  0.18270146     0.07700
C1724       C  0.68170231  0.34931313  0.15190851    -0.02400
Br1725     Br  0.71068346  0.38996226  0.13337828    -0.01000
Br1726     Br  0.66500535  0.33033836  0.09241631    -0.01100
Br1727     Br  0.66125131  0.31628854  0.23978187    -0.01000
Br1728     Br  0.63396068  0.23040514  0.20314580    -0.01000
O1729       O  0.68394259  0.43293266  0.81033170    -0.75600
O1730       O  0.70872313  0.37962850  0.78290269    -0.54500
C1731       C  0.68955498  0.39161563  0.80280519     0.78100
O1732       O  0.68183709  0.58183553  0.69182121    -0.60200
O1733       O  0.70905425  0.63676405  0.71668181    -0.53200
C1734       C  0.68887234  0.62361946  0.69736670     0.70200
O1735       O  0.68495318  0.42829555  0.69362309    -0.74700
O1736       O  0.71347212  0.37645893  0.71900150    -0.55300
C1737       C  0.69322546  0.38736235  0.69972861     0.76200
O1738       O  0.68504242  0.58539457  0.81100448    -0.59900
O1739       O  0.70739636  0.63863018  0.78238000    -0.53000
C1740       C  0.68902894  0.62688454  0.80305819     0.72800
Zr1741     Zr  0.69878673  0.50909870  0.79539023     2.54700
O1742       O  0.64353725  0.50915910  0.79232083    -0.80500
O1743       O  0.69851937  0.51034424  0.84942853    -0.93900
Zr1744     Zr  0.69800581  0.50657146  0.70781600     2.64700
O1745       O  0.64270772  0.50439539  0.70868751    -0.98800
O1746       O  0.69794924  0.50359602  0.65389457    -0.80900
O1747       O  0.69803942  0.46328717  0.75195488    -0.84200
O1748       O  0.69782583  0.55239490  0.75127193    -2.19000
O1749       O  0.80329028  0.58543551  0.81162888    -0.67600
O1750       O  0.77684673  0.63951162  0.78599519    -0.52200
C1751       C  0.79680602  0.62688189  0.80550736     0.71100
O1752       O  0.80475412  0.43441461  0.69449371    -0.60500
O1753       O  0.78068831  0.38028178  0.72184486    -0.52500
C1754       C  0.79997248  0.39299867  0.70213982     0.72900
O1755       O  0.80291301  0.58476852  0.69246135    -0.71900
O1756       O  0.77836615  0.63919101  0.71915987    -0.50600
C1757       C  0.79756598  0.62635829  0.69933313     0.74300
O1758       O  0.80316215  0.43366588  0.81222635    -0.67300
O1759       O  0.77646306  0.37973272  0.78618096    -0.54500
C1760       C  0.79617716  0.39213921  0.80585092     0.72700
Zr1761     Zr  0.78826521  0.50962587  0.79624867     2.77500
O1762       O  0.84345422  0.50539200  0.79726224    -0.98000
O1763       O  0.78567359  0.51220242  0.85012980    -0.78800
Zr1764     Zr  0.78753890  0.50954215  0.70810861     2.70100
O1765       O  0.84265977  0.51105430  0.70597248    -0.80100
O1766       O  0.78220594  0.50701001  0.65430311    -0.99200
Zr1767     Zr  0.74429600  0.42134741  0.75232670     2.21500
Zr1768     Zr  0.74322492  0.59767478  0.75135415     2.11100
O1769       O  0.78878327  0.55379460  0.75216079    -2.47900
O1770       O  0.78953657  0.46577756  0.75216263    -0.79900
O1771       O  0.74352166  0.55423873  0.79601842    -0.72100
O1772       O  0.74334988  0.46367058  0.70738282    -2.33000
O1773       O  0.74359440  0.46493246  0.79700248    -2.29200
O1774       O  0.74247835  0.55299753  0.70697994    -0.73800
H1775       H  0.68004443  0.57145663  0.75102001     0.78200
H1776       H  0.74373801  0.44384979  0.69023128     0.79300
H1777       H  0.80654955  0.57324711  0.75223233     0.81500
H1778       H  0.74353082  0.44570510  0.81432321     0.79100
H1779       H  0.71905499  0.49568637  0.64867086     0.42100
H1780       H  0.77125567  0.53525497  0.64913277     0.41100
H1781       H  0.84935042  0.51117259  0.72699091     0.40800
H1782       H  0.85008648  0.52419494  0.78035391     0.38700
H1783       H  0.76428080  0.51992123  0.85434113     0.41800
H1784       H  0.70949209  0.48253728  0.85548823     0.36600
H1785       H  0.63861257  0.52691071  0.77432577     0.42700
H1786       H  0.63672164  0.48977546  0.68965569     0.39200
H1787       H  0.84974627  0.52286395  0.81514425     0.44100
H1788       H  0.67708607  0.50428953  0.85469805     0.42800
H1789       H  0.63774493  0.48144969  0.72393451     0.42900
H1790       H  0.80307246  0.51198316  0.64691227     0.43300
O1791       O  0.94155908  0.43190749  0.94107238    -0.75600
O1792       O  0.96369893  0.37673276  0.96841261    -0.54500
C1793       C  0.94561341  0.38964025  0.94756380     0.78100
O1794       O  0.55538283  0.58893618  0.93846870    -0.60200
O1795       O  0.53157684  0.64090322  0.96792980    -0.53200
C1796       C  0.54938689  0.63010751  0.94652803     0.70200
O1797       O  0.55661681  0.43608033  0.93818405    -0.74700
O1798       O  0.53191398  0.38107212  0.96470571    -0.55300
C1799       C  0.55064841  0.39443668  0.94463881     0.76200
O1800       O  0.93883601  0.58618450  0.94400994    -0.59900
O1801       O  0.96449096  0.64002858  0.97121068    -0.53000
C1802       C  0.94476825  0.62779117  0.95132017     0.72800
Zr1803     Zr  0.95249745  0.50929862  0.95932702     2.54700
O1804       O  0.94217544  0.51101588  0.90620284    -0.80500
O1805       O  0.89853824  0.50909952  0.97074230    -0.93900
Zr1806     Zr  0.54231254  0.51140452  0.95491175     2.64700
O1807       O  0.53786443  0.50937931  0.90102416    -0.98800
O1808       O  0.59763283  0.51295098  0.95501773    -0.80900
O1809       O  0.99730249  0.46579942  0.95604776    -0.84200
O1810       O  0.99718744  0.55477094  0.95721273    -2.19000
O1811       O  0.93928703  0.58552913  0.55815871    -0.67600
O1812       O  0.96419991  0.63976141  0.53181113    -0.52200
C1813       C  0.94382673  0.62718582  0.55039062     0.71100
O1814       O  0.55803693  0.42871216  0.55813730    -0.60500
O1815       O  0.53003946  0.37528708  0.53343651    -0.52500
C1816       C  0.54949538  0.38708403  0.55350977     0.72900
O1817       O  0.56476895  0.58094634  0.55965169    -0.71900
O1818       O  0.53505579  0.63557076  0.53822337    -0.50600
C1819       C  0.55646358  0.62235882  0.55610538     0.74300
O1820       O  0.94439865  0.43329665  0.56300492    -0.67300
O1821       O  0.96651176  0.37871188  0.53429608    -0.54500
C1822       C  0.94894575  0.39168594  0.55545663     0.72700
Zr1823     Zr  0.95815515  0.50917449  0.54687045     2.77500
O1824       O  0.96629661  0.51469426  0.60026178    -0.98000
O1825       O  0.90337392  0.50573106  0.55260068    -0.78800
Zr1826     Zr  0.54770125  0.50690879  0.54202246     2.70100
O1827       O  0.55543628  0.51285653  0.59537476    -0.80100
O1828       O  0.60210246  0.50041208  0.53380015    -0.99200
Zr1829     Zr  0.99915908  0.42021558  0.49977981     2.21500
Zr1830     Zr  0.00051569  0.59781023  0.50217357     2.11100
O1831       O  0.00336132  0.55249941  0.54592199    -2.47900
O1832       O  0.00237567  0.46356607  0.54465103    -0.79900
O1833       O  0.95508613  0.55349396  0.50340640    -0.72100
O1834       O  0.54512089  0.46408886  0.49767100    -2.33000
O1835       O  0.95402220  0.46453535  0.50279073    -2.29200
O1836       O  0.54618793  0.55437860  0.49939314    -0.73800
H1837       H  0.99618796  0.57449266  0.94013952     0.78200
H1838       H  0.56262953  0.44454549  0.49677963     0.79300
H1839       H  0.00422120  0.57122081  0.56355898     0.81500
H1840       H  0.93627795  0.44506186  0.50349559     0.79100
H1841       H  0.60322526  0.54172794  0.96525263     0.42100
H1842       H  0.60761744  0.52832178  0.52284605     0.41100
H1843       H  0.53536242  0.52175748  0.60316378     0.40800
H1844       H  0.94651313  0.50585411  0.60885837     0.38700
H1845       H  0.89528938  0.50546860  0.53203839     0.41800
H1846       H  0.89365072  0.47743616  0.97643236     0.36600
H1847       H  0.96253953  0.51172160  0.89707029     0.42700
H1848       H  0.52369285  0.53427612  0.89602031     0.39200
H1849       H  0.97994332  0.48903804  0.60503584     0.44100
H1850       H  0.88825544  0.51332558  0.95134300     0.42800
H1851       H  0.55787657  0.52009722  0.89391762     0.42900
H1852       H  0.61140187  0.50471848  0.55371590     0.43300
C1853       C  0.86982638  0.26016334  0.87342933    -0.02800
O1854       O  0.80988120  0.09220460  0.94488963    -0.75600
O1855       O  0.78287577  0.14505594  0.97082086    -0.54500
C1856       C  0.80302224  0.13341298  0.95168494     0.78100
O1857       O  0.68579066  0.93626891  0.94519950    -0.60200
O1858       O  0.71310950  0.88359887  0.97091887    -0.53200
C1859       C  0.69237009  0.89508317  0.95221196     0.70200
O1860       O  0.68787173  0.08854174  0.94279848    -0.74700
O1861       O  0.71564036  0.14347491  0.96665296    -0.55300
C1862       C  0.69523621  0.13031117  0.94767222     0.76200
O1863       O  0.81002772  0.94053879  0.94341252    -0.59900
O1864       O  0.78357559  0.88606208  0.96860835    -0.53000
C1865       C  0.80347522  0.89893175  0.94942549     0.72800
Zr1866     Zr  0.79367447  0.01570985  0.95888242     2.54700
O1867       O  0.79138141  0.01728312  0.90489335    -0.80500
O1868       O  0.84900202  0.01591860  0.96118352    -0.93900
Zr1869     Zr  0.70356106  0.01290804  0.95743217     2.64700
O1870       O  0.70583626  0.00722165  0.90357133    -0.98800
O1871       O  0.64832112  0.01562678  0.95658150    -0.80900
O1872       O  0.74826096  0.05877635  0.95740016    -0.84200
O1873       O  0.74891413  0.96997387  0.95692136    -2.19000
O1874       O  0.80715223  0.93621365  0.56183440    -0.67600
O1875       O  0.77924751  0.88389267  0.53590113    -0.52200
C1876       C  0.79908810  0.89476396  0.55575552     0.71100
O1877       O  0.68683457  0.09045506  0.55988213    -0.60500
O1878       O  0.71284281  0.14411056  0.53350059    -0.52500
C1879       C  0.69308881  0.13188851  0.55288517     0.72900
O1880       O  0.68660445  0.93732122  0.55795554    -0.71900
O1881       O  0.71379319  0.88414072  0.53247400    -0.50600
C1882       C  0.69340660  0.89602315  0.55123253     0.74300
O1883       O  0.80813575  0.09076646  0.56170611    -0.67300
O1884       O  0.77943153  0.14422010  0.53812017    -0.54500
C1885       C  0.80010864  0.13217250  0.55690855     0.72700
Zr1886     Zr  0.79279148  0.01398214  0.54688034     2.77500
O1887       O  0.78615996  0.01755336  0.60023944    -0.98000
O1888       O  0.84800011  0.01322254  0.55077830    -0.78800
Zr1889     Zr  0.70296518  0.01413650  0.54528332     2.70100
O1890       O  0.70679261  0.01167868  0.59917431    -0.80100
O1891       O  0.64768578  0.01617494  0.54517040    -0.99200
Zr1892     Zr  0.74809949  0.10267158  0.50211903     2.21500
Zr1893     Zr  0.74864896  0.92666708  0.50145571     2.11100
O1894       O  0.74777663  0.96976293  0.54635323    -2.47900
O1895       O  0.74798689  0.05874297  0.54650072    -0.79900
O1896       O  0.79439482  0.97048008  0.50252107    -0.72100
O1897       O  0.70262974  0.05792768  0.50135452    -2.33000
O1898       O  0.79381824  0.05921669  0.50328748    -2.29200
O1899       O  0.70279973  0.96934760  0.50136893    -0.73800
H1900       H  0.74908386  0.95021281  0.93971830     0.78200
H1901       H  0.68485814  0.07704330  0.50099013     0.79300
H1902       H  0.74737084  0.95005136  0.56342466     0.81500
H1903       H  0.81145007  0.07893167  0.50386930     0.79100
H1904       H  0.64237846  0.00807853  0.97710185     0.42100
H1905       H  0.64142369  0.99372974  0.52983400     0.41100
H1906       H  0.71953744  0.03838273  0.60460529     0.40800
H1907       H  0.77133068  0.99324194  0.60483335     0.38700
H1908       H  0.85251324  0.02403403  0.57119974     0.41800
H1909       H  0.85434017  0.03924070  0.97630694     0.36600
H1910       H  0.77284169  0.03485532  0.90018569     0.42700
H1911       H  0.71935459  0.98120931  0.89944985     0.39200
H1912       H  0.80575743  0.00717730  0.60866612     0.44100
H1913       H  0.85545388  0.02938832  0.94214445     0.42800
H1914       H  0.68536351  0.99639058  0.89741739     0.42900
H1915       H  0.64176725  0.00215636  0.56420817     0.43300
C1916       C  0.62363517  0.76281867  0.87874867    -0.02800
O1917       O  0.93216462  0.08121303  0.69336429    -0.75600
O1918       O  0.96022065  0.13507372  0.71824000    -0.54500
C1919       C  0.93978001  0.12285047  0.69922581     0.78100
O1920       O  0.93812792  0.92996952  0.81244715    -0.60200
O1921       O  0.96135283  0.87513197  0.78470123    -0.53200
C1922       C  0.94353455  0.88848516  0.80555300     0.70200
O1923       O  0.93888392  0.08103668  0.81256217    -0.74700
O1924       O  0.96312094  0.13496607  0.78597793    -0.55300
C1925       C  0.94531946  0.12290394  0.80718132     0.76200
O1926       O  0.93581979  0.92665564  0.68944040    -0.59900
O1927       O  0.96341184  0.87361542  0.71442021    -0.53000
C1928       C  0.94416947  0.88531417  0.69431135     0.72800
Zr1929     Zr  0.94616786  0.00359740  0.70845423     2.54700
O1930       O  0.89175509  0.00020500  0.71747908    -0.80500
O1931       O  0.93711064  0.00154232  0.65513192    -0.93900
Zr1932     Zr  0.95176716  0.00478096  0.79546423     2.64700
O1933       O  0.89645997  0.00438182  0.79659895    -0.98800
O1934       O  0.95749195  0.00379751  0.84923831    -0.80900
O1935       O  0.94806136  0.04935227  0.75197246    -0.84200
O1936       O  0.94848019  0.95874305  0.75198514    -2.19000
O1937       O  0.55239618  0.92709050  0.69194192    -0.67600
O1938       O  0.52514554  0.87210906  0.71486197    -0.52200
C1939       C  0.54546084  0.88507085  0.69629798     0.71100
O1940       O  0.55549809  0.08055823  0.80831233    -0.60500
O1941       O  0.52763412  0.13417128  0.78389803    -0.52500
C1942       C  0.54785251  0.12194503  0.80298124     0.72900
O1943       O  0.55341193  0.92675886  0.80789027    -0.71900
O1944       O  0.53117710  0.87187846  0.77935156    -0.50600
C1945       C  0.55001724  0.88489409  0.79975499     0.74300
O1946       O  0.54991062  0.07922174  0.68780942    -0.67300
O1947       O  0.52579005  0.13350053  0.71404101    -0.54500
C1948       C  0.54361626  0.12102311  0.69292426     0.72700
Zr1949     Zr  0.53648614  0.00378758  0.70492913     2.77500
O1950       O  0.59151128  0.00908410  0.70050141    -0.98000
O1951       O  0.52849666  0.00086259  0.65149232    -0.78800
Zr1952     Zr  0.54147532  0.00416184  0.79192661     2.70100
O1953       O  0.59556968  0.00835895  0.78152724    -0.80100
O1954       O  0.55116754  0.00421836  0.84522124    -0.99200
Zr1955     Zr  0.49437619  0.09261732  0.75032082     2.21500
Zr1956     Zr  0.99436507  0.91522109  0.75001917     2.11100
O1957       O  0.54014111  0.95923909  0.74840790    -2.47900
O1958       O  0.53991736  0.04920187  0.74843222    -0.79900
O1959       O  0.99122211  0.95977002  0.70611159    -0.72100
O1960       O  0.49684941  0.04832019  0.79447094    -2.33000
O1961       O  0.49164116  0.04772397  0.70605990    -2.29200
O1962       O  0.99639251  0.95992051  0.79432233    -0.73800
H1963       H  0.93093133  0.93907419  0.75262451     0.78200
H1964       H  0.49768330  0.06727454  0.81201594     0.79300
H1965       H  0.55792910  0.94023224  0.74784269     0.81500
H1966       H  0.49080343  0.06664184  0.68861693     0.79100
H1967       H  0.97791988  0.01691625  0.85316361     0.42100
H1968       H  0.53668927  0.98166396  0.85332104     0.41100
H1969       H  0.59795103  0.03515569  0.76851566     0.40800
H1970       H  0.59952134  0.98704517  0.71511290     0.38700
H1971       H  0.50841106  0.98598542  0.64880320     0.41800
H1972       H  0.95480967  0.01745320  0.64654170     0.36600
H1973       H  0.88735833  0.02856298  0.72853224     0.42700
H1974       H  0.89030972  0.97571397  0.78652881     0.39200
H1975       H  0.59596615  0.99532585  0.68094359     0.44100
H1976       H  0.91960746  0.02182327  0.65150162     0.42800
H1977       H  0.89148107  0.99941402  0.81771794     0.42900
H1978       H  0.57139512  0.99008252  0.84767842     0.43300
C1979       C  0.86886662  0.75429376  0.62328388    -0.02800
C1980       C  0.62135224  0.25766429  0.62805432    -0.02800
C1981       C  0.87380722  0.26521712  0.62897849    -0.02800
C1982       C  0.62495022  0.76365172  0.62470478    -0.02800
C1983       C  0.61960336  0.25723107  0.87426679    -0.02800
C1984       C  0.87109189  0.75877628  0.87867068    -0.02800
C1985       C  0.57877209  0.19309917  0.80581174    -0.02100
C1986       C  0.56374743  0.15778952  0.82031618     0.07500
C1987       C  0.56575789  0.15437149  0.85119163    -0.02300
C1988       C  0.58311689  0.18601346  0.86795965    -0.02300
C1989       C  0.59971332  0.22282306  0.85403227     0.07700
C1990       C  0.59882138  0.22232208  0.82158387    -0.02400
Br1991     Br  0.62840993  0.24910969  0.79479941    -0.01000
Br1992     Br  0.57349935  0.19898052  0.76304368    -0.01100
Br1993     Br  0.57923158  0.17913998  0.91037473    -0.01000
Br1994     Br  0.54102292  0.10874098  0.87084568    -0.01000
C1995       C  0.57469044  0.23542708  0.66350082    -0.02100
C1996       C  0.60057741  0.22170377  0.64589234     0.07500
C1997       C  0.60439619  0.17315808  0.64388230    -0.02300
C1998       C  0.58176807  0.14262010  0.65327878    -0.02300
C1999       C  0.55943685  0.15618175  0.67374961     0.07700
C2000       C  0.55475143  0.20334002  0.67699998    -0.02400
Br2001     Br  0.51877705  0.22502412  0.69736739    -0.01000
Br2002     Br  0.56749092  0.29692213  0.67570830    -0.01100
Br2003     Br  0.58088919  0.08312570  0.63426984    -0.01000
Br2004     Br  0.64255272  0.14219693  0.63976005    -0.01000
C2005       C  0.91065799  0.82606978  0.87085347    -0.02100
C2006       C  0.89061324  0.79192234  0.85747374     0.07500
C2007       C  0.88787165  0.79491486  0.82501396    -0.02300
C2008       C  0.90386432  0.82881728  0.80916591    -0.02300
C2009       C  0.92675979  0.85431963  0.82277333     0.07700
C2010       C  0.93006970  0.85331463  0.85347316    -0.02400
Br2011     Br  0.96293152  0.88889498  0.87139027    -0.01000
Br2012     Br  0.91749010  0.83444428  0.91291990    -0.01100
Br2013     Br  0.89103098  0.84788815  0.76967667    -0.01000
Br2014     Br  0.86063012  0.76163614  0.79821945    -0.01000
C2015       C  0.58511983  0.77495799  0.66902686    -0.02100
C2016       C  0.60473526  0.79356274  0.64643478     0.07500
C2017       C  0.60469610  0.84205927  0.64475987    -0.02300
C2018       C  0.57969711  0.86625631  0.65414734    -0.02300
C2019       C  0.56307596  0.85076836  0.67861262     0.07700
C2020       C  0.56688536  0.80445326  0.68674480    -0.02400
Br2021     Br  0.54762144  0.78034556  0.72155848    -0.01000
Br2022     Br  0.58118976  0.71000320  0.67617274    -0.01100
Br2023     Br  0.56964572  0.91974935  0.63150318    -0.01000
Br2024     Br  0.64074071  0.88014186  0.64425422    -0.01000
C2025       C  0.90612993  0.82512077  0.62867754    -0.02100
C2026       C  0.89019179  0.78760252  0.64276783     0.07500
C2027       C  0.89532051  0.78397464  0.67454962    -0.02300
C2028       C  0.91871060  0.80899076  0.68856285    -0.02300
C2029       C  0.92974892  0.84893923  0.67569469     0.07700
C2030       C  0.92462935  0.85571713  0.64531641    -0.02400
Br2031     Br  0.94844631  0.90208345  0.62552298    -0.01000
Br2032     Br  0.90674916  0.83507932  0.58620625    -0.01100
Br2033     Br  0.93716950  0.78493645  0.72433603    -0.01000
Br2034     Br  0.86821010  0.75875788  0.70414230    -0.01000
C2035       C  0.90929558  0.19340821  0.63517203    -0.02100
C2036       C  0.89275802  0.23004836  0.64942256     0.07500
C2037       C  0.89274152  0.22816545  0.68188206    -0.02300
C2038       C  0.90918162  0.19430103  0.69754203    -0.02300
C2039       C  0.92414580  0.15947184  0.68249679     0.07700
C2040       C  0.92454247  0.15945063  0.65155790    -0.02400
Br2041     Br  0.94930468  0.11442397  0.63163028    -0.01000
Br2042     Br  0.91596871  0.18948746  0.59295402    -0.01100
Br2043     Br  0.90961688  0.19258196  0.74078113    -0.01000
Br2044     Br  0.86705160  0.26208407  0.70867860    -0.01000
C2045       C  0.59810251  0.86750812  0.82694717    -0.02100
C2046       C  0.57072555  0.85125867  0.81481629     0.07500
C2047       C  0.56538362  0.80411868  0.81665616    -0.02300
C2048       C  0.58638013  0.77588055  0.83216176    -0.02300
C2049       C  0.60710946  0.79487052  0.85416047     0.07700
C2050       C  0.61347661  0.84336345  0.84943835    -0.02400
Br2051     Br  0.64401462  0.88314367  0.86819354    -0.01000
Br2052     Br  0.61784526  0.91907139  0.80802664    -0.01100
Br2053     Br  0.58528106  0.71225479  0.82091118    -0.01000
Br2054     Br  0.52901683  0.77740621  0.79934899    -0.01000
C2055       C  0.81970200  0.16319425  0.60530178    -0.02100
C2056       C  0.81630833  0.16798477  0.57453764     0.07500
C2057       C  0.83026291  0.20495475  0.56055097    -0.02300
C2058       C  0.85163989  0.23259565  0.57602506    -0.02300
C2059       C  0.85345954  0.23192530  0.60837954     0.07700
C2060       C  0.83605671  0.19578328  0.62220406    -0.02400
Br2061     Br  0.82893052  0.19151264  0.66442630    -0.01000
Br2062     Br  0.79859606  0.11400467  0.62518574    -0.01100
Br2063     Br  0.88048358  0.25966510  0.54860071    -0.01000
Br2064     Br  0.82101419  0.21679444  0.51912911    -0.01000
C2065       C  0.69219750  0.19226843  0.59189060    -0.02100
C2066       C  0.67708312  0.16810993  0.56932766     0.07500
C2067       C  0.64682803  0.17870684  0.56295234    -0.02300
C2068       C  0.63403191  0.21738447  0.57618886    -0.02300
C2069       C  0.64393845  0.23194895  0.60514052     0.07700
C2070       C  0.67553490  0.21979262  0.61182524    -0.02400
Br2071     Br  0.69698198  0.22783117  0.64947267    -0.01000
Br2072     Br  0.73538471  0.18306129  0.59706479    -0.01100
Br2073     Br  0.62705391  0.26154740  0.54540868    -0.01000
Br2074     Br  0.62555003  0.14815984  0.53092200    -0.01000
C2075       C  0.64543038  0.85664375  0.56527814    -0.02100
C2076       C  0.67703024  0.85986900  0.56736050     0.07500
C2077       C  0.69267914  0.83309860  0.58787958    -0.02300
C2078       C  0.67680903  0.80517023  0.60799200    -0.02300
C2079       C  0.64437039  0.79728741  0.60460476     0.07700
C2080       C  0.62919564  0.82555858  0.58289502    -0.02400
Br2081     Br  0.58593409  0.82444966  0.57538988    -0.01000
Br2082     Br  0.62430684  0.89513442  0.53733935    -0.01100
Br2083     Br  0.70117711  0.78971312  0.64256177    -0.01000
Br2084     Br  0.73646162  0.83880612  0.59017420    -0.01000
C2085       C  0.85541095  0.79946062  0.93154327    -0.02100
C2086       C  0.85252247  0.79437207  0.89920358     0.07500
C2087       C  0.83398307  0.82915919  0.88510374    -0.02300
C2088       C  0.81698494  0.86091445  0.90173850    -0.02300
C2089       C  0.82014947  0.86366333  0.93249227     0.07700
C2090       C  0.84142488  0.83625547  0.94663868    -0.02400
Br2091     Br  0.85581041  0.85694000  0.98538036    -0.01000
Br2092     Br  0.88072846  0.76472297  0.95875564    -0.01100
Br2093     Br  0.78846403  0.90179289  0.88242734    -0.01000
Br2094     Br  0.82592725  0.83248122  0.84303776    -0.01000
C2095       C  0.66497132  0.20251508  0.94270691    -0.02100
C2096       C  0.67858240  0.16460377  0.92953475     0.07500
C2097       C  0.67358678  0.15641054  0.89915592    -0.02300
C2098       C  0.65602958  0.18656036  0.88183185    -0.02300
C2099       C  0.63985912  0.22444323  0.89495623     0.07700
C2100       C  0.64263211  0.22761904  0.92716270    -0.02400
Br2101     Br  0.61321047  0.25358896  0.95442693    -0.01000
Br2102     Br  0.67595440  0.21946160  0.98301957    -0.01100
Br2103     Br  0.66000404  0.17653229  0.83966703    -0.01000
Br2104     Br  0.69445673  0.10617988  0.88001348    -0.01000
C2105       C  0.83351471  0.82611717  0.61954007    -0.02100
C2106       C  0.84810951  0.78850474  0.60455439     0.07500
C2107       C  0.84311367  0.78694814  0.57268032    -0.02300
C2108       C  0.82181067  0.81593543  0.55908294    -0.02300
C2109       C  0.81358822  0.85697863  0.57292216     0.07700
C2110       C  0.81882799  0.86114712  0.60359751    -0.02400
Br2111     Br  0.80102426  0.91142255  0.62500812    -0.01000
Br2112     Br  0.82940756  0.82998853  0.66213849    -0.01100
Br2113     Br  0.80223025  0.79553076  0.52258535    -0.01000
Br2114     Br  0.86799140  0.75751374  0.54302598    -0.01000
C2115       C  0.62726272  0.82627366  0.91897749    -0.02100
C2116       C  0.64294005  0.79386521  0.90039665     0.07500
C2117       C  0.67542706  0.79096763  0.90471536    -0.02300
C2118       C  0.69115449  0.82493401  0.92097732    -0.02300
C2119       C  0.67537980  0.85827580  0.93683266     0.07700
C2120       C  0.64354487  0.85736036  0.93710324    -0.02400
Br2121     Br  0.62204605  0.90171164  0.96057238    -0.01000
Br2122     Br  0.58356611  0.83425325  0.91790957    -0.01100
Br2123     Br  0.73506500  0.82684725  0.92079507    -0.01000
Br2124     Br  0.69959134  0.73739463  0.89674702    -0.01000
C2125       C  0.93409265  0.20601969  0.82217280    -0.02100
C2126       C  0.92971382  0.15872662  0.82605112     0.07500
C2127       C  0.90782993  0.14552653  0.84699807    -0.02300
C2128       C  0.88519469  0.17576927  0.85616504    -0.02300
C2129       C  0.88908413  0.22435578  0.85408370     0.07700
C2130       C  0.91445854  0.23815958  0.83595662    -0.02400
Br2131     Br  0.92166690  0.30024792  0.82516067    -0.01000
Br2132     Br  0.96970047  0.22804677  0.80142994    -0.01100
Br2133     Br  0.84702438  0.14396041  0.85905152    -0.01000
Br2134     Br  0.90978865  0.08767085  0.86746901    -0.01000
C2135       C  0.80201871  0.19159764  0.91186777    -0.02100
C2136       C  0.81807351  0.16989541  0.93462150     0.07500
C2137       C  0.84828462  0.18255488  0.94013231    -0.02300
C2138       C  0.86041533  0.22069450  0.92571507    -0.02300
C2139       C  0.84898385  0.23365316  0.89708150     0.07700
C2140       C  0.81748002  0.21975677  0.89145177    -0.02400
Br2141     Br  0.79434304  0.22854462  0.85485171    -0.01000
Br2142     Br  0.75925291  0.17761520  0.90686014    -0.01100
Br2143     Br  0.87249967  0.26575432  0.95496686    -0.01000
Br2144     Br  0.87177052  0.15306141  0.97069396    -0.01000
C2145       C  0.56305615  0.30446553  0.56833831    -0.02100
C2146       C  0.56257698  0.35173170  0.57402816     0.07500
C2147       C  0.57265274  0.36593223  0.60205187    -0.02300
C2148       C  0.59359882  0.33984109  0.61841448    -0.02300
C2149       C  0.59787890  0.29153303  0.61141165     0.07700
C2150       C  0.57659106  0.27451006  0.58939017    -0.02400
Br2151     Br  0.56405035  0.21128490  0.58681684    -0.01000
Br2152     Br  0.54532731  0.27947296  0.53225559    -0.01100
Br2153     Br  0.61046035  0.37644693  0.65110578    -0.01000
Br2154     Br  0.55123287  0.41561768  0.62118532    -0.01000
C2155       C  0.57134591  0.72321146  0.60720771    -0.02100
C2156       C  0.60352857  0.73251427  0.60313546     0.07500
C2157       C  0.61613838  0.70867045  0.57822627    -0.02300
C2158       C  0.60316140  0.66792842  0.56764798    -0.02300
C2159       C  0.57296521  0.65734918  0.57391994     0.07700
C2160       C  0.55761636  0.68379056  0.59470860    -0.02400
Br2161     Br  0.51867674  0.66229019  0.60865042    -0.01000
Br2162     Br  0.54094220  0.76735029  0.61900799    -0.01100
Br2163     Br  0.62706599  0.62770268  0.54332013    -0.01000
Br2164     Br  0.63780497  0.73938147  0.54664804    -0.01000
C2165       C  0.93659296  0.70291440  0.57584363    -0.02100
C2166       C  0.92416887  0.66241067  0.56453219     0.07500
C2167       C  0.89321968  0.65352287  0.56943983    -0.02300
C2168       C  0.87551664  0.68320900  0.58707069    -0.02300
C2169       C  0.88906100  0.72173147  0.60263781     0.07700
C2170       C  0.92167422  0.72661254  0.59856839    -0.02400
Br2171     Br  0.95145141  0.74958999  0.62721930    -0.01000
Br2172     Br  0.97406320  0.72768064  0.56034016    -0.01100
Br2173     Br  0.83235283  0.67075785  0.58551350    -0.01000
Br2174     Br  0.87381657  0.60453938  0.54721856    -0.01000
C2175       C  0.60610663  0.72459561  0.93120508    -0.02100
C2176       C  0.60012001  0.73600209  0.90008635     0.07500
C2177       C  0.57183965  0.71819470  0.88911130    -0.02300
C2178       C  0.55953083  0.67809645  0.90119994    -0.02300
C2179       C  0.56525509  0.66796179  0.93106497     0.07700
C2180       C  0.58606471  0.69542644  0.94669654    -0.02400
Br2181     Br  0.58876796  0.68958523  0.98924123    -0.01000
Br2182     Br  0.64318004  0.73617138  0.95400348    -0.01100
Br2183     Br  0.53006734  0.64355460  0.87853439    -0.01000
Br2184     Br  0.53950392  0.75936751  0.87900620    -0.01000
C2185       C  0.94140462  0.69907999  0.92058894    -0.02100
C2186       C  0.92699813  0.66332856  0.93535695     0.07500
C2187       C  0.89544810  0.65871632  0.93280137    -0.02300
C2188       C  0.87818490  0.68920337  0.91536633    -0.02300
C2189       C  0.89224587  0.72513852  0.89811097     0.07700
C2190       C  0.92546854  0.72554560  0.89941815    -0.01200
Br2191     Br  0.95337764  0.74984044  0.86995885    -0.01000
Br2192     Br  0.98378741  0.71162941  0.92929156    -0.01100
Br2193     Br  0.83504092  0.68290656  0.92113860    -0.01000
Br2194     Br  0.87535037  0.61415421  0.95774649    -0.01000
C2195       C  0.55116167  0.33053801  0.90827845    -0.02100
C2196       C  0.56699324  0.35957141  0.92747375     0.07500
C2197       C  0.59858548  0.35844318  0.92846687    -0.02300
C2198       C  0.61472352  0.32792791  0.91033388    -0.02300
C2199       C  0.59939975  0.29207605  0.89340380     0.07700
C2200       C  0.56614999  0.29493628  0.89303958    -0.02400
Br2201     Br  0.53733096  0.25854915  0.86981630    -0.01000
Br2202     Br  0.50913491  0.34594707  0.89958763    -0.01100
Br2203     Br  0.65825762  0.33563195  0.91361257    -0.01000
Br2204     Br  0.61969543  0.39832993  0.95650226    -0.01000
C2205       C  0.92863098  0.29738022  0.60984876    -0.02100
C2206       C  0.89540935  0.29828475  0.60987822     0.07500
C2207       C  0.88204609  0.33448235  0.59230889    -0.02300
C2208       C  0.89968213  0.36175526  0.57323999    -0.02300
C2209       C  0.93120134  0.35734871  0.57220900     0.07700
C2210       C  0.94548941  0.32512951  0.59014437    -0.02400
Br2211     Br  0.98927242  0.32189138  0.58891616    -0.01000
Br2212     Br  0.95488745  0.26868117  0.63945809    -0.01100
Br2213     Br  0.88033735  0.40232007  0.54487102    -0.01000
Br2214     Br  0.83910628  0.34670921  0.58937886    -0.01000
C2215       C  0.91937858  0.27787602  0.90730011    -0.02100
C2216       C  0.89406078  0.29386985  0.88962982     0.07500
C2217       C  0.89180692  0.34280629  0.88865223    -0.02300
C2218       C  0.90336806  0.36961197  0.91174920    -0.02300
C2219       C  0.92808693  0.35477393  0.92913785     0.07700
C2220       C  0.93632999  0.30814439  0.92637449    -0.02400
Br2221     Br  0.96844713  0.28310490  0.95099354    -0.01000
Br2222     Br  0.93134640  0.21449384  0.90797241    -0.01100
Br2223     Br  0.88148717  0.42519013  0.92003117    -0.01000
Br2224     Br  0.88255567  0.38031449  0.85416281    -0.01000
C2225       C  0.81617557  0.72249032  0.86031248    -0.02100
C2226       C  0.84944601  0.72427477  0.85979287     0.07500
C2227       C  0.86326764  0.68867879  0.84204691    -0.02300
C2228       C  0.84590077  0.66024539  0.82289448    -0.02300
C2229       C  0.81421888  0.66170305  0.82272795     0.07700
C2230       C  0.79954097  0.69106030  0.84222951    -0.02400
Br2231     Br  0.75601819  0.68264037  0.84648937    -0.01000
Br2232     Br  0.78981130  0.75358835  0.88813778    -0.01100
Br2233     Br  0.86561168  0.62149446  0.79383629    -0.01000
Br2234     Br  0.90639131  0.68006995  0.83809053    -0.01000
C2235       C  0.68823685  0.32093471  0.83336119    -0.02100
C2236       C  0.67264311  0.35568730  0.81871660     0.07500
C2237       C  0.64106190  0.35847613  0.82098912    -0.02300
C2238       C  0.62463675  0.32610316  0.83742736    -0.02300
C2239       C  0.63975252  0.29064488  0.85431408     0.07700
C2240       C  0.67289893  0.29101604  0.85274281    -0.02400
Br2241     Br  0.70142536  0.26104945  0.87950427    -0.01000
Br2242     Br  0.73199972  0.31705725  0.82854860    -0.01100
Br2243     Br  0.58113067  0.32914719  0.83089729    -0.01000
Br2244     Br  0.61976358  0.40509128  0.79860116    -0.01000
C2245       C  0.86688023  0.33592177  0.66513975    -0.02100
C2246       C  0.85296140  0.29919880  0.64803681     0.07500
C2247       C  0.81978028  0.29797435  0.64887437    -0.02300
C2248       C  0.80367428  0.32367605  0.67007577    -0.02300
C2249       C  0.81811228  0.35837146  0.68623494     0.07700
C2250       C  0.84954520  0.36452073  0.68367856    -0.02400
Br2251     Br  0.86948316  0.40878235  0.70964136    -0.01000
Br2252     Br  0.91013551  0.34614671  0.66868530    -0.01100
Br2253     Br  0.76062145  0.31297850  0.67604909    -0.01000
Br2254     Br  0.79226949  0.27301151  0.61859492    -0.01000
C2255       C  0.67484792  0.65769735  0.64823283    -0.02100
C2256       C  0.67325250  0.65901053  0.67930280     0.07500
C2257       C  0.66008849  0.69685425  0.69291386    -0.02300
C2258       C  0.64961591  0.73391167  0.67591407    -0.02300
C2259       C  0.64623047  0.73035301  0.64398860     0.07700
C2260       C  0.66361643  0.69405568  0.63095009    -0.02400
Br2261     Br  0.68469036  0.69995024  0.59387345    -0.01000
Br2262     Br  0.69516673  0.60722510  0.62904925    -0.01100
Br2263     Br  0.64878456  0.79099170  0.69791300    -0.01000
Br2264     Br  0.65380398  0.69630071  0.73524129    -0.01000
C2265       C  0.79967434  0.69382064  0.66565639    -0.02100
C2266       C  0.81494070  0.66100981  0.68235415     0.07500
C2267       C  0.84644533  0.65636755  0.67926875    -0.02300
C2268       C  0.86303970  0.68450884  0.65977342    -0.02300
C2269       C  0.84859687  0.72077031  0.64330696     0.07700
C2270       C  0.81543583  0.72139988  0.64505831    -0.02400
Br2271     Br  0.78759099  0.74880202  0.61648907    -0.01000
Br2272     Br  0.75577964  0.69763778  0.66940365    -0.01100
Br2273     Br  0.90632383  0.67326211  0.65978336    -0.01000
Br2274     Br  0.86758847  0.61376587  0.70483991    -0.01000
C2275       C  0.81014349  0.35433416  0.85337264    -0.02100
C2276       C  0.81205006  0.35602320  0.82244071     0.07500
C2277       C  0.82869482  0.32295682  0.80726104    -0.02300
C2278       C  0.84422598  0.28843573  0.82272082    -0.02300
C2279       C  0.84728990  0.29056235  0.85457248     0.07700
C2280       C  0.82747382  0.32254208  0.86953798    -0.02400
Br2281     Br  0.82350593  0.32693027  0.91228858    -0.01000
Br2282     Br  0.78433478  0.39752364  0.87368131    -0.01100
Br2283     Br  0.85317745  0.23546607  0.79862480    -0.01000
Br2284     Br  0.83124649  0.32640820  0.76463401    -0.01000
C2285       C  0.67873133  0.70979688  0.81814697    -0.02100
C2286       C  0.67170059  0.66279194  0.81983156     0.07500
C2287       C  0.64936592  0.64950437  0.84035747    -0.02300
C2288       C  0.64051949  0.67903846  0.86308131    -0.02300
C2289       C  0.64344853  0.72746022  0.86004119     0.07700
C2290       C  0.66363099  0.74169346  0.83664436    -0.02400
Br2291     Br  0.67632962  0.80366789  0.83129697    -0.01000
Br2292     Br  0.70887039  0.73244009  0.79034114    -0.01100
Br2293     Br  0.63705053  0.64696065  0.90006657    -0.01000
Br2294     Br  0.62762688  0.59201969  0.83745929    -0.01000
C2295       C  0.66330283  0.31975799  0.63467012    -0.02100
C2296       C  0.64295080  0.28729485  0.64849041     0.07500
C2297       C  0.64548800  0.28336452  0.68038013    -0.02300
C2298       C  0.66178897  0.31651515  0.69694442    -0.02300
C2299       C  0.67870241  0.35028757  0.68267208     0.07700
C2300       C  0.68158374  0.34935256  0.65187570    -0.02400
Br2301     Br  0.71038877  0.39028026  0.63332891    -0.01000
Br2302     Br  0.66507715  0.33000773  0.59236111    -0.01100
Br2303     Br  0.66130278  0.31614648  0.73977182    -0.01000
Br2304     Br  0.63398202  0.23023930  0.70311158    -0.01000
loop_ 
_geom_bond_atom_site_label_1 
_geom_bond_atom_site_label_2 
_geom_bond_distance 
_geom_bond_site_symmetry_2 
_ccdc_geom_bond_type 
O1          Zr13   2.430       .  S
O1            C3   1.286       .  A
O2          Zr39   2.424       .  S
O2            C3   1.286       .  A
C3          C508   1.480       .  S
O4          Zr16   2.441       .  S
O4            C6   1.288       .  A
O5          Zr40   2.453       .  S
O5            C6   1.293       .  A
C6          C528   1.491       .  S
O7          Zr16   2.448       .  S
O7            C9   1.290       .  A
O8          Zr39   2.400       .  S
O8            C9   1.282       .  A
C9          C571   1.470       .  S
O10         Zr13   2.432       .  S
O10          C12   1.285       .  A
O11         Zr40   2.436       .  S
O11          C12   1.286       .  A
C12         C558   1.510       .  S
Zr13         O14   2.434       .  S
Zr13         O15   2.436       .  S
Zr13         O19   2.369       .  S
Zr13         O20   2.366       .  S
Zr13         O43   2.368       .  S
Zr13         O45   2.370       .  S
O14          H57   0.990       .  S
O15          H56   0.990       .  S
O15          H60   0.990       .  S
Zr16         O17   2.435       .  S
Zr16         O18   2.432       .  S
Zr16         O20   2.372       .  S
Zr16         O19   2.366       .  S
Zr16         O44   2.368       .  S
Zr16         O46   2.379       .  S
O17          H58   0.990       .  S
O17          H61   0.990       .  S
O18          H51   0.989       .  S
O19         Zr39   2.385       .  S
O20         Zr40   2.393       .  S
O20          H47   0.965       .  S
O21         Zr33   2.417       .  S
O21          C23   1.284       .  A
O22         Zr40   2.459       .  S
O22          C23   1.294       .  A
C23         C501   1.486       .  S
O24         Zr36   2.417       .  S
O24          C26   1.283       .  A
O25         Zr39   2.441       .  S
O25          C26   1.289       .  A
C26         C521   1.484       .  S
O27         Zr36   2.418       .  S
O27          C29   1.283       .  A
O28         Zr40   2.455       .  S
O28          C29   1.293       .  A
C29         C538   1.490       .  S
O30         Zr33   2.443       .  S
O30          C32   1.288       .  A
O31         Zr39   2.414       .  S
O31          C32   1.284       .  A
C32         C548   1.478       .  S
Zr33         O34   2.433       .  S
Zr33         O35   2.433       .  S
Zr33         O41   2.378       .  S
Zr33         O42   2.364       .  S
Zr33         O45   2.360       .  S
Zr33         O43   2.375       .  S
O34          H54   0.989       .  S
O34          H59   0.990       .  S
O35          H55   0.990       .  S
Zr36         O37   2.429       .  S
Zr36         O38   2.435       .  S
Zr36         O42   2.372       .  S
Zr36         O41   2.368       .  S
Zr36         O46   2.367       .  S
Zr36         O44   2.359       .  S
O37          H53   0.989       .  S
O38          H52   0.990       .  S
O38          H62   0.990       .  S
Zr39         O42   2.375       .  S
Zr39         O44   2.381       .  S
Zr39         O45   2.384       .  S
Zr40         O41   2.391       .  S
Zr40         O43   2.391       .  S
Zr40         O46   2.387       .  S
O41          H49   0.966       .  S
O44          H48   0.966       .  S
O45          H50   0.966       .  S
O63         Zr75   2.458       .  S
O63          C65   1.291       .  A
O64        Zr677   2.442       .  S
O64          C65   1.286       .  A
C65         C491   1.519       .  S
O66         Zr78   2.465       .  S
O66          C68   1.291       .  A
O67       Zr1830   2.430       .  S
O67          C68   1.288       .  A
C68         C451   1.488       .  S
O69         Zr78   2.423       .  S
O69          C71   1.285       .  A
O70       Zr1829   2.443   1_455  S
O70          C71   1.291       .  A
C71         C468   1.476       .  S
O72         Zr75   2.442       .  S
O72          C74   1.289       .  A
O73        Zr678   2.441       .  S
O73          C74   1.290       .  A
C74         C458   1.492       .  S
Zr75         O76   2.433       .  S
Zr75         O77   2.435       .  S
Zr75         O81   2.363       .  S
Zr75         O82   2.375       .  S
Zr75        O681   2.368       .  S
Zr75        O683   2.365       .  S
O76         H119   0.990       .  S
O77         H118   0.989       .  S
O77         H122   0.989       .  S
Zr78         O79   2.435       .  S
Zr78         O80   2.435       .  S
Zr78       O1234   2.359   1_455  S
Zr78       O1233   2.382   1_455  S
Zr78        O682   2.385       .  S
Zr78        O684   2.371       .  S
O79         H120   0.990       .  S
O79         H123   0.990       .  S
O80         H113   0.990       .  S
O81       Zr1230   2.383       .  S
O81        Zr677   2.393       .  S
O82       Zr1230   2.360       .  S
O82        Zr678   2.393       .  S
O82         H109   0.967       .  S
O83         Zr95   2.450       .  S
O83          C85   1.290       .  A
O84        Zr102   2.432       .  S
O84          C85   1.287       .  A
C85         C438   1.497       .  S
O86         Zr98   2.457       .  S
O86          C88   1.293       .  A
O87       Zr1253   2.429   1_454  S
O87          C88   1.285       .  A
C88         C418   1.508       .  S
O89         Zr98   2.426       .  S
O89          C91   1.283       .  A
O90       Zr1254   2.467       .  S
O90          C91   1.296       .  A
C91         C431   1.484       .  S
O92         Zr95   2.425       .  S
O92          C94   1.286       .  A
O93        Zr101   2.453   1_554  S
O93          C94   1.291       .  A
C94         C481   1.487       .  S
Zr95         O96   2.434       .  S
Zr95         O97   2.429       .  S
Zr95        O103   2.356       .  S
Zr95        O104   2.372       .  S
Zr95        O107   2.381       .  S
Zr95        O105   2.361       .  S
O96         H116   0.990       .  S
O96         H121   0.990       .  S
O97         H117   0.990       .  S
Zr98         O99   2.431       .  S
Zr98        O100   2.434       .  S
Zr98        O108   2.381   1_554  S
Zr98        O106   2.359   1_554  S
Zr98       O1256   2.366       .  S
Zr98       O1255   2.385       .  S
O99         H115   0.990       .  S
O100        H114   0.990       .  S
O100        H124   0.990       .  S
Zr101       O640   2.439       .  S
Zr101      O1798   2.443       .  S
Zr101      O1239   2.427   1_556  S
Zr101       O104   2.388   1_556  S
Zr101       O107   2.387   1_556  S
Zr101       O657   2.393       .  S
Zr101      O1258   2.399       .  S
Zr102      O1795   2.432   1_554  S
Zr102       O649   2.443   1_554  S
Zr102      O1242   2.467       .  S
Zr102       O103   2.387       .  S
Zr102       O105   2.380       .  S
Zr102       O658   2.391   1_554  S
Zr102      O1260   2.389   1_554  S
O103      Zr1250   2.384       .  S
O103        H111   0.965       .  S
O104      Zr1250   2.366       .  S
O105       Zr651   2.368   1_554  S
O106       Zr654   2.386       .  S
O106      Zr1253   2.399   1_455  S
O106        H110   0.965       .  S
O107       Zr651   2.365   1_554  S
O107        H112   0.966       .  S
O108       Zr654   2.370       .  S
O108      Zr1254   2.389   1_556  S
C125        C401   1.613       .  S
C125        C411   1.615       .  S
C125        C488   1.619       .  S
C125        C551   1.583       .  S
O126       Zr138   2.443       .  S
O126        C128   1.287       .  A
O127       Zr740   2.443       .  S
O127        C128   1.290       .  A
C128        C408   1.481       .  S
O129       Zr141   2.440   1_565  S
O129        C131   1.287       .  A
O130       Zr741   2.413       .  S
O130        C131   1.284       .  A
C131        C391   1.478       .  S
O132       Zr141   2.423       .  S
O132        C134   1.285       .  A
O133       Zr740   2.447       .  S
O133        C134   1.291       .  A
C134        C368   1.493       .  S
O135       Zr138   2.430   1_565  S
O135        C137   1.286       .  A
O136       Zr741   2.460       .  S
O136        C137   1.293       .  A
C137        C361   1.488       .  S
Zr138       O139   2.434       .  S
Zr138       O140   2.435       .  S
Zr138       O144   2.375       .  S
Zr138       O145   2.381   1_545  S
Zr138       O744   2.373   1_545  S
Zr138       O746   2.364       .  S
O139        H182   0.990       .  S
O140        H181   0.990       .  S
O140        H185   0.990       .  S
Zr141       O142   2.434       .  S
Zr141       O143   2.434       .  S
Zr141       O145   2.368   1_545  S
Zr141       O144   2.378       .  S
Zr141       O745   2.370       .  S
Zr141       O747   2.360   1_545  S
O142        H183   0.990   1_545  S
O142        H186   0.990   1_545  S
O143        H176   0.990       .  S
O144       Zr740   2.387       .  S
O145       Zr741   2.380       .  S
O145        H172   0.967       .  S
O146       Zr158   2.469   1_565  S
O146        C148   1.294       .  A
O147       Zr165   2.411       .  S
O147        C148   1.282       .  A
C148        C381   1.499       .  S
O149       Zr161   2.445       .  S
O149        C151   1.288       .  A
O150       Zr164   2.437       .  S
O150        C151   1.289       .  A
C151        C338   1.479       .  S
O152       Zr161   2.438   1_565  S
O152        C154   1.288       .  A
O153       Zr165   2.428       .  S
O153        C154   1.287       .  A
C154        C348   1.477       .  S
O155       Zr158   2.438       .  S
O155        C157   1.288       .  A
O156       Zr164   2.438       .  S
O156        C157   1.289       .  A
C157        C328   1.489       .  S
Zr158       O159   2.429       .  S
Zr158       O160   2.435       .  S
Zr158       O166   2.362   1_545  S
Zr158       O167   2.376       .  S
Zr158       O170   2.378       .  S
Zr158       O168   2.371   1_545  S
O159        H179   0.989   1_545  S
O159        H184   0.989       .  S
O160        H180   0.990       .  S
Zr161       O162   2.435       .  S
Zr161       O163   2.433       .  S
Zr161       O167   2.369       .  S
Zr161       O166   2.372   1_545  S
Zr161       O171   2.372   1_545  S
Zr161       O169   2.367       .  S
O162        H178   0.990       .  S
O163        H177   0.989   1_545  S
O163        H187   0.990       .  S
Zr164       O703   2.442   1_554  S
Zr164       O709   2.447   1_554  S
Zr164       O167   2.386       .  S
Zr164       O169   2.386       .  S
Zr164       O170   2.388       .  S
Zr164       O720   2.384   1_554  S
Zr165       O706   2.414   1_554  S
Zr165       O712   2.456   1_554  S
Zr165       O166   2.382       .  S
Zr165       O168   2.383       .  S
Zr165       O171   2.382       .  S
Zr165       O721   2.379   1_554  S
O166        H174   0.966       .  S
O168       Zr714   2.375   1_564  S
O169       Zr717   2.369   1_554  S
O169        H173   0.966       .  S
O170       Zr714   2.365   1_554  S
O170        H175   0.965       .  S
O171       Zr717   2.360   1_564  S
C188        C321   1.626       .  S
C188        C388   1.572       .  S
C188        C448   1.623       .  S
C188        C561   1.604       .  S
O189       Zr201   2.464       .  S
O189        C191   1.292       .  A
O190      Zr1379   2.413       .  S
O190        C191   1.285       .  A
C191        C311   1.487       .  S
O192       Zr204   2.408   1_565  S
O192        C194   1.282       .  A
O193       Zr228   2.446       .  S
O193        C194   1.291       .  A
C194        C281   1.472       .  S
O195       Zr204   2.439       .  S
O195        C197   1.286       .  A
O196      Zr1379   2.458       .  S
O196        C197   1.291       .  A
C197        C398   1.522       .  S
O198       Zr201   2.452   1_565  S
O198        C200   1.291       .  A
O199       Zr228   2.418       .  S
O199        C200   1.284       .  A
C200        C301   1.491       .  S
Zr201       O202   2.434   1_545  S
Zr201       O203   2.433       .  S
Zr201       O207   2.374       .  S
Zr201       O208   2.371   1_545  S
Zr201       O231   2.375   1_545  S
Zr201      O1385   2.368       .  S
O202        H245   0.990   1_565  S
O203        H244   0.989       .  S
O203        H248   0.990       .  S
Zr204       O205   2.436       .  S
Zr204       O206   2.434       .  S
Zr204       O208   2.378   1_545  S
Zr204       O207   2.368       .  S
Zr204       O234   2.375   1_545  S
Zr204      O1384   2.355       .  S
O205        H246   0.990   1_545  S
O205        H249   0.990   1_545  S
O206        H239   0.990       .  S
O207      Zr1379   2.390       .  S
O208       Zr228   2.400       .  S
O208        H235   0.963       .  S
O209       Zr221   2.435   1_565  S
O209        C211   1.287       .  A
O210      Zr1380   2.445   1_455  S
O210        C211   1.288       .  A
C211        C291   1.506       .  S
O212       Zr224   2.435       .  S
O212        C214   1.287       .  A
O213       Zr227   2.419   1_455  S
O213        C214   1.286       .  A
C214        C258   1.478       .  S
O215       Zr224   2.448   1_565  S
O215        C217   1.290       .  A
O216      Zr1380   2.441   1_455  S
O216        C217   1.287       .  A
C217        C318   1.507       .  S
O218       Zr221   2.425       .  S
O218        C220   1.282       .  A
O219       Zr227   2.463   1_455  S
O219        C220   1.292       .  A
C220        C271   1.520       .  S
Zr221       O222   2.435       .  S
Zr221       O223   2.433       .  S
Zr221       O229   2.367   1_545  S
Zr221       O230   2.370       .  S
Zr221       O233   2.365   1_455  S
Zr221      O1383   2.360   1_445  S
O222        H242   0.990   1_545  S
O222        H247   0.990   1_545  S
O223        H243   0.990   1_545  S
Zr224       O225   2.433       .  S
Zr224       O226   2.436       .  S
Zr224       O230   2.372       .  S
Zr224       O229   2.360   1_545  S
Zr224       O232   2.365   1_455  S
Zr224      O1386   2.368   1_445  S
O225        H241   0.990       .  S
O226        H240   0.990   1_545  S
O226        H250   0.990   1_545  S
Zr227      O1342   2.413       .  S
Zr227      O1348   2.457       .  S
Zr227       O230   2.384   1_655  S
Zr227       O232   2.386       .  S
Zr227       O233   2.387       .  S
Zr227      O1359   2.388       .  S
Zr228      O1362   2.446       .  S
Zr228      O1368   2.443       .  S
Zr228       O231   2.383       .  S
Zr228       O234   2.388       .  S
Zr228      O1381   2.387       .  S
O229      Zr1380   2.388   1_455  S
O229        H237   0.965       .  S
O231      Zr1373   2.359   1_565  S
O232      Zr1356   2.355       .  S
O232        H236   0.966       .  S
O233      Zr1353   2.367       .  S
O233        H238   0.966       .  S
O234      Zr1376   2.367   1_565  S
C251        C298   1.605       .  S
C251        C378   1.601       .  S
C251        C441   1.608       .  S
C251        C541   1.611       .  S
C252        C268   1.616       .  S
C252        C341   1.627       .  S
C252        C421   1.620       .  S
C252        C568   1.574       .  S
C253        C308   1.619       .  S
C253        C331   1.607       .  S
C253        C478   1.613       .  S
C253        C518   1.610       .  S
C254        C288   1.593       .  S
C254        C351   1.593       .  S
C254        C428   1.623       .  S
C254        C531   1.611       .  S
C255        C261   1.607       .  S
C255        C371   1.613       .  S
C255        C471   1.615       .  S
C255        C511   1.603       .  S
C256        C278   1.617       .  S
C256        C358   1.625       .  S
C256        C461   1.619       .  S
C256        C498   1.619       .  S
C257        C258   1.396       .  A
C257        C262   1.412       .  A
C257       Br264   1.948       .  S
C258        C259   1.399       .  A
C259        C260   1.411       .  A
C259       Br266   1.944       .  S
C260        C261   1.449       .  A
C260       Br265   1.933       .  S
C261        C262   1.463       .  A
C262       Br263   1.950       .  S
C267        C268   1.453       .  A
C267        C272   1.427       .  A
C267       Br274   1.917       .  S
C268        C269   1.440       .  A
C269        C270   1.406       .  A
C269       Br276   1.924       .  S
C270        C271   1.412       .  A
C270       Br275   1.944       .  S
C271        C272   1.411       .  A
C272       Br273   1.947       .  S
C277        C278   1.456       .  A
C277        C282   1.412       .  A
C277       Br284   1.931       .  S
C278        C279   1.470       .  A
C279        C280   1.417       .  A
C279       Br286   1.949       .  S
C280        C281   1.389       .  A
C280       Br285   1.948       .  S
C281        C282   1.390       .  A
C282       Br283   1.946       .  S
C287        C288   1.448       .  A
C287        C292   1.431       .  A
C287       Br294   1.945       .  S
C288        C289   1.428       .  A
C289        C290   1.382       .  A
C289       Br296   1.937       .  S
C290        C291   1.406       .  A
C290       Br295   1.930       .  S
C291        C292   1.422       .  A
C292       Br293   1.926       .  S
C297        C298   1.455       .  A
C297        C302   1.416       .  A
C297       Br304   1.939       .  S
C298        C299   1.452       .  A
C299        C300   1.405       .  A
C299       Br306   1.944       .  S
C300        C301   1.399       .  A
C300       Br305   1.937       .  S
C301        C302   1.401       .  A
C302       Br303   1.940       .  S
C307        C308   1.454       .  A
C307        C312   1.414       .  A
C307       Br314   1.931       .  S
C308        C309   1.465       .  A
C309        C310   1.421       .  A
C309       Br316   1.940       .  S
C310        C311   1.398       .  A
C310       Br315   1.949       .  S
C311        C312   1.395       .  A
C312       Br313   1.942       .  S
C317        C318   1.398       .  A
C317        C322   1.409       .  A
C317       Br324   1.946       .  S
C318        C319   1.407       .  A
C319        C320   1.426       .  A
C319       Br326   1.934       .  S
C320        C321   1.448       .  A
C320       Br325   1.936       .  S
C321        C322   1.468       .  A
C322       Br323   1.959       .  S
C327        C328   1.402       .  A
C327        C332   1.410       .  A
C327       Br334   1.941       .  S
C328        C329   1.401       .  A
C329        C330   1.415       .  A
C329       Br336   1.941       .  S
C330        C331   1.460       .  A
C330       Br335   1.949       .  S
C331        C332   1.451       .  A
C332       Br333   1.936       .  S
C337        C338   1.398       .  A
C337        C342   1.419       .  A
C337       Br344   1.935       .  S
C338        C339   1.396       .  A
C339        C340   1.404       .  A
C339       Br346   1.928       .  S
C340        C341   1.435       .  A
C340       Br345   1.930       .  S
C341        C342   1.466       .  A
C342       Br343   1.946       .  S
C347        C348   1.395       .  A
C347        C352   1.409       .  A
C347       Br354   1.932       .  S
C348        C349   1.396       .  A
C349        C350   1.413       .  A
C349       Br356   1.936       .  S
C350        C351   1.451       .  A
C350       Br355   1.940       .  S
C351        C352   1.448       .  A
C352       Br353   1.931       .  S
C357        C358   1.469       .  A
C357        C362   1.422       .  A
C357       Br364   1.946       .  S
C358        C359   1.457       .  A
C359        C360   1.417       .  A
C359       Br366   1.928       .  S
C360        C361   1.394       .  A
C360       Br365   1.946       .  S
C361        C362   1.392       .  A
C362       Br363   1.945       .  S
C367        C368   1.401       .  A
C367        C372   1.415       .  A
C367       Br374   1.937       .  S
C368        C369   1.404       .  A
C369        C370   1.413       .  A
C369       Br376   1.948       .  S
C370        C371   1.453       .  A
C370       Br375   1.931       .  S
C371        C372   1.458       .  A
C372       Br373   1.950       .  S
C377        C378   1.449       .  A
C377        C382   1.414       .  A
C377       Br384   1.934       .  S
C378        C379   1.452       .  A
C379        C380   1.409       .  A
C379       Br386   1.940       .  S
C380        C381   1.407       .  A
C380       Br385   1.941       .  S
C381        C382   1.405       .  A
C382       Br383   1.935       .  S
C387        C388   1.448       .  A
C387        C392   1.411       .  A
C387       Br394   1.939       .  S
C388        C389   1.444       .  A
C389        C390   1.410       .  A
C389       Br396   1.940       .  S
C390        C391   1.402       .  A
C390       Br395   1.932       .  S
C391        C392   1.401       .  A
C392       Br393   1.933       .  S
C397        C398   1.414       .  A
C397        C402   1.428       .  A
C397       Br404   1.942       .  S
C398        C399   1.409       .  A
C399        C400   1.403       .  A
C399       Br406   1.941       .  S
C400        C401   1.441       .  A
C400       Br405   1.924       .  S
C401        C402   1.448       .  A
C402       Br403   1.916       .  S
C407        C408   1.399       .  A
C407        C412   1.418       .  A
C407       Br414   1.935       .  S
C408        C409   1.398       .  A
C409        C410   1.404       .  A
C409       Br416   1.927       .  S
C410        C411   1.434       .  A
C410       Br415   1.932       .  S
C411        C412   1.463       .  A
C412       Br413   1.950       .  S
C417        C418   1.412       .  A
C417        C422   1.426       .  A
C417       Br424   1.936       .  S
C418        C419   1.395       .  A
C419        C420   1.408       .  A
C419       Br426   1.945       .  S
C420        C421   1.467       .  A
C420       Br425   1.957       .  S
C421        C422   1.444       .  A
C422       Br423   1.938       .  S
C427        C428   1.455       .  A
C427        C432   1.415       .  A
C427       Br434   1.946       .  S
C428        C429   1.439       .  A
C429        C430   1.403       .  A
C429       Br436   1.944       .  S
C430        C431   1.395       .  A
C430       Br435   1.932       .  S
C431        C432   1.397       .  A
C432       Br433   1.934       .  S
C437        C438   1.399       .  A
C437        C442   1.406       .  A
C437       Br444   1.936       .  S
C438        C439   1.405       .  A
C439        C440   1.419       .  A
C439       Br446   1.938       .  S
C440        C441   1.451       .  A
C440       Br445   1.933       .  S
C441        C442   1.455       .  A
C442       Br443   1.947       .  S
C447        C448   1.465       .  A
C447        C452   1.417       .  A
C447       Br454   1.947       .  S
C448        C449   1.430       .  A
C449        C450   1.408       .  A
C449       Br456   1.926       .  S
C450        C451   1.401       .  A
C450       Br455   1.925       .  S
C451        C452   1.400       .  A
C452       Br453   1.930       .  S
C457        C458   1.398       .  A
C457        C462   1.417       .  A
C457       Br464   1.935       .  S
C458        C459   1.398       .  A
C459        C460   1.416       .  A
C459       Br466   1.945       .  S
C460        C461   1.454       .  A
C460       Br465   1.927       .  S
C461        C462   1.463       .  A
C462       Br463   1.953       .  S
C467        C468   1.391       .  A
C467        C472   1.419       .  A
C467       Br474   1.944       .  S
C468        C469   1.391       .  A
C469        C470   1.411       .  A
C469       Br476   1.945       .  S
C470        C471   1.457       .  A
C470       Br475   1.932       .  S
C471        C472   1.467       .  A
C472       Br473   1.948       .  S
C477        C478   1.462       .  A
C477        C482   1.420       .  A
C477       Br484   1.955       .  S
C478        C479   1.453       .  A
C479        C480   1.413       .  A
C479       Br486   1.929       .  S
C480        C481   1.396       .  A
C480       Br485   1.946       .  S
C481        C482   1.397       .  A
C482       Br483   1.931       .  S
C487        C488   1.446       .  A
C487        C492   1.435       .  A
C487       Br494   1.939       .  S
C488        C489   1.443       .  A
C489        C490   1.393       .  A
C489       Br496   1.952       .  S
C490        C491   1.408       .  A
C490       Br495   1.938       .  S
C491        C492   1.425       .  A
C492       Br493   1.939       .  S
C497        C498   1.464       .  A
C497        C502   1.424       .  A
C497       Br504   1.945       .  S
C498        C499   1.454       .  A
C499        C500   1.414       .  A
C499       Br506   1.926       .  S
C500        C501   1.395       .  A
C500       Br505   1.946       .  S
C501        C502   1.395       .  A
C502       Br503   1.941       .  S
C507        C508   1.399       .  A
C507        C512   1.415       .  A
C507       Br514   1.944       .  S
C508        C509   1.397       .  A
C509        C510   1.409       .  A
C509       Br516   1.945       .  S
C510        C511   1.454       .  A
C510       Br515   1.937       .  S
C511        C512   1.460       .  A
C512       Br513   1.949       .  S
C517        C518   1.452       .  A
C517        C522   1.414       .  A
C517       Br524   1.930       .  S
C518        C519   1.462       .  A
C519        C520   1.414       .  A
C519       Br526   1.954       .  S
C520        C521   1.396       .  A
C520       Br525   1.940       .  S
C521        C522   1.400       .  A
C522       Br523   1.945       .  S
C527        C528   1.403       .  A
C527        C532   1.415       .  A
C527       Br534   1.941       .  S
C528        C529   1.399       .  A
C529        C530   1.412       .  A
C529       Br536   1.930       .  S
C530        C531   1.449       .  A
C530       Br535   1.946       .  S
C531        C532   1.443       .  A
C532       Br533   1.927       .  S
C537        C538   1.398       .  A
C537        C542   1.419       .  A
C537       Br544   1.945       .  S
C538        C539   1.403       .  A
C539        C540   1.415       .  A
C539       Br546   1.942       .  S
C540        C541   1.449       .  A
C540       Br545   1.935       .  S
C541        C542   1.462       .  A
C542       Br543   1.950       .  S
C547        C548   1.399       .  A
C547        C552   1.411       .  A
C547       Br554   1.941       .  S
C548        C549   1.401       .  A
C549        C550   1.410       .  A
C549       Br556   1.930       .  S
C550        C551   1.442       .  A
C550       Br555   1.939       .  S
C551        C552   1.454       .  A
C552       Br553   1.941       .  S
C557        C558   1.416       .  A
C557        C562   1.424       .  A
C557       Br564   1.951       .  S
C558        C559   1.411       .  A
C559        C560   1.399       .  A
C559       Br566   1.939       .  S
C560        C561   1.435       .  A
C560       Br565   1.926       .  S
C561        C562   1.448       .  A
C562       Br563   1.919       .  S
C567        C568   1.451       .  A
C567        C572   1.406       .  A
C567       Br574   1.934       .  S
C568        C569   1.446       .  A
C569        C570   1.413       .  A
C569       Br576   1.940       .  S
C570        C571   1.400       .  A
C570       Br575   1.931       .  S
C571        C572   1.395       .  A
C572       Br573   1.940       .  S
O577       Zr589   2.430       .  S
O577        C579   1.286       .  A
O578       Zr615   2.426       .  S
O578        C579   1.287       .  A
C579       C1084   1.481       .  S
O580       Zr592   2.438       .  S
O580        C582   1.287       .  A
O581       Zr616   2.452       .  S
O581        C582   1.293       .  A
C582       C1104   1.491       .  S
O583       Zr592   2.447       .  S
O583        C585   1.289       .  A
O584       Zr615   2.400       .  S
O584        C585   1.282       .  A
C585       C1147   1.470       .  S
O586       Zr589   2.429       .  S
O586        C588   1.284       .  A
O587       Zr616   2.439       .  S
O587        C588   1.287       .  A
C588       C1134   1.511       .  S
Zr589       O590   2.434       .  S
Zr589       O591   2.436       .  S
Zr589       O595   2.370       .  S
Zr589       O596   2.367       .  S
Zr589       O619   2.367       .  S
Zr589       O621   2.368       .  S
O590        H633   0.990       .  S
O591        H632   0.990       .  S
O591        H636   0.990       .  S
Zr592       O593   2.435       .  S
Zr592       O594   2.432       .  S
Zr592       O596   2.371       .  S
Zr592       O595   2.367       .  S
Zr592       O620   2.368       .  S
Zr592       O622   2.379       .  S
O593        H634   0.990       .  S
O593        H637   0.990       .  S
O594        H627   0.989       .  S
O595       Zr615   2.386       .  S
O596       Zr616   2.393       .  S
O596        H623   0.965       .  S
O597       Zr609   2.419       .  S
O597        C599   1.284       .  A
O598       Zr616   2.458       .  S
O598        C599   1.294       .  A
C599       C1077   1.486       .  S
O600       Zr612   2.419       .  S
O600        C602   1.284       .  A
O601       Zr615   2.442       .  S
O601        C602   1.290       .  A
C602       C1097   1.485       .  S
O603       Zr612   2.422       .  S
O603        C605   1.284       .  A
O604       Zr616   2.453       .  S
O604        C605   1.292       .  A
C605       C1114   1.490       .  S
O606       Zr609   2.445       .  S
O606        C608   1.288       .  A
O607       Zr615   2.414       .  S
O607        C608   1.284       .  A
C608       C1124   1.479       .  S
Zr609       O610   2.432       .  S
Zr609       O611   2.434       .  S
Zr609       O617   2.380       .  S
Zr609       O618   2.366       .  S
Zr609       O621   2.358       .  S
Zr609       O619   2.373       .  S
O610        H630   0.989       .  S
O610        H635   0.990       .  S
O611        H631   0.990       .  S
Zr612       O613   2.429       .  S
Zr612       O614   2.435       .  S
Zr612       O618   2.374       .  S
Zr612       O617   2.369       .  S
Zr612       O622   2.367       .  S
Zr612       O620   2.360       .  S
O613        H629   0.989       .  S
O614        H628   0.990       .  S
O614        H638   0.990       .  S
Zr615       O618   2.376       .  S
Zr615       O620   2.383       .  S
Zr615       O621   2.382       .  S
Zr616       O617   2.393       .  S
Zr616       O619   2.390       .  S
Zr616       O622   2.388       .  S
O617        H625   0.966       .  S
O620        H624   0.966       .  S
O621        H626   0.966       .  S
O639       Zr651   2.458       .  S
O639        C641   1.291       .  A
O640        C641   1.286       .  A
C641       C1067   1.518       .  S
O642       Zr654   2.465       .  S
O642        C644   1.291       .  A
O643      Zr1254   2.430   1_556  S
O643        C644   1.288       .  A
C644       C1027   1.488       .  S
O645       Zr654   2.425       .  S
O645        C647   1.286       .  A
O646      Zr1253   2.445   1_455  S
O646        C647   1.291       .  A
C647       C1044   1.477       .  S
O648       Zr651   2.444       .  S
O648        C650   1.290       .  A
O649        C650   1.290       .  A
C650       C1034   1.493       .  S
Zr651       O652   2.434       .  S
Zr651       O653   2.434       .  S
Zr651       O657   2.362       .  S
Zr651       O658   2.373       .  S
O652        H695   0.990       .  S
O653        H694   0.989       .  S
O653        H698   0.989       .  S
Zr654       O655   2.436       .  S
Zr654       O656   2.434       .  S
Zr654      O1810   2.358   1_455  S
Zr654      O1809   2.382   1_455  S
O655        H696   0.990       .  S
O655        H699   0.990       .  S
O656        H689   0.990       .  S
O657      Zr1806   2.381       .  S
O658      Zr1806   2.359       .  S
O658        H685   0.967       .  S
O659       Zr671   2.452       .  S
O659        C661   1.290       .  A
O660       Zr678   2.432       .  S
O660        C661   1.287       .  A
C661       C1014   1.498       .  S
O662       Zr674   2.458       .  S
O662        C664   1.293       .  A
O663      Zr1829   2.427   1_455  S
O663        C664   1.284       .  A
C664        C994   1.507       .  S
O665       Zr674   2.425       .  S
O665        C667   1.283       .  A
O666      Zr1830   2.467       .  S
O666        C667   1.296       .  A
C667       C1007   1.483       .  S
O668       Zr671   2.426       .  S
O668        C670   1.286       .  A
O669       Zr677   2.452       .  S
O669        C670   1.291       .  A
C670       C1057   1.487       .  S
Zr671       O672   2.435       .  S
Zr671       O673   2.429       .  S
Zr671       O679   2.357       .  S
Zr671       O680   2.374       .  S
Zr671       O683   2.381       .  S
Zr671       O681   2.361       .  S
O672        H692   0.990       .  S
O672        H697   0.990       .  S
O673        H693   0.989       .  S
Zr674       O675   2.431       .  S
Zr674       O676   2.434       .  S
Zr674      O1832   2.366       .  S
Zr674      O1831   2.384       .  S
Zr674       O684   2.381       .  S
Zr674       O682   2.359       .  S
O675        H691   0.990       .  S
O676        H690   0.990       .  S
O676        H700   0.990       .  S
Zr677      O1222   2.443       .  S
Zr677      O1815   2.428       .  S
Zr677       O680   2.389       .  S
Zr677      O1834   2.400       .  S
Zr677       O683   2.388       .  S
Zr678      O1219   2.430       .  S
Zr678      O1818   2.468       .  S
Zr678       O679   2.387       .  S
Zr678       O681   2.381       .  S
Zr678      O1836   2.389       .  S
O679      Zr1826   2.385       .  S
O679        H687   0.965       .  S
O680      Zr1826   2.367       .  S
O682      Zr1829   2.399   1_455  S
O682        H686   0.965       .  S
O683        H688   0.966       .  S
O684      Zr1830   2.389       .  S
C701        C977   1.613       .  S
C701        C987   1.615       .  S
C701       C1064   1.618       .  S
C701       C1127   1.584       .  S
O702       Zr714   2.439       .  S
O702        C704   1.286       .  A
O703        C704   1.290       .  A
C704        C984   1.479       .  S
O705       Zr717   2.440   1_565  S
O705        C707   1.287       .  A
O706        C707   1.285       .  A
C707        C967   1.478       .  S
O708       Zr717   2.424       .  S
O708        C710   1.285       .  A
O709        C710   1.291       .  A
C710        C944   1.493       .  S
O711       Zr714   2.425   1_565  S
O711        C713   1.285       .  A
O712        C713   1.293       .  A
C713        C937   1.484       .  S
Zr714       O715   2.434       .  S
Zr714       O716   2.436       .  S
Zr714       O720   2.373       .  S
Zr714       O721   2.379   1_545  S
O715        H758   0.990       .  S
O716        H757   0.990       .  S
O716        H761   0.990       .  S
Zr717       O718   2.434       .  S
Zr717       O719   2.433       .  S
Zr717       O721   2.367   1_545  S
Zr717       O720   2.377       .  S
O718        H759   0.990   1_545  S
O718        H762   0.990   1_545  S
O719        H752   0.989       .  S
O721        H748   0.967       .  S
O722       Zr734   2.465   1_565  S
O722        C724   1.293       .  A
O723       Zr741   2.410       .  S
O723        C724   1.282       .  A
C724        C957   1.497       .  S
O725       Zr737   2.447       .  S
O725        C727   1.288       .  A
O726       Zr740   2.437       .  S
O726        C727   1.289       .  A
C727        C914   1.480       .  S
O728       Zr737   2.438   1_565  S
O728        C730   1.288       .  A
O729       Zr741   2.429       .  S
O729        C730   1.288       .  A
C730        C924   1.477       .  S
O731       Zr734   2.436       .  S
O731        C733   1.288       .  A
O732       Zr740   2.441       .  S
O732        C733   1.290       .  A
C733        C904   1.490       .  S
Zr734       O735   2.429       .  S
Zr734       O736   2.433       .  S
Zr734       O742   2.361   1_545  S
Zr734       O743   2.375       .  S
Zr734       O746   2.376       .  S
Zr734       O744   2.369   1_545  S
O735        H755   0.989   1_545  S
O735        H760   0.989       .  S
O736        H756   0.990       .  S
Zr737       O738   2.436       .  S
Zr737       O739   2.433       .  S
Zr737       O743   2.369       .  S
Zr737       O742   2.371   1_545  S
Zr737       O747   2.372   1_545  S
Zr737       O745   2.367       .  S
O738        H754   0.990       .  S
O739        H753   0.989   1_545  S
O739        H763   0.990       .  S
Zr740       O743   2.385       .  S
Zr740       O745   2.388       .  S
Zr740       O746   2.387       .  S
Zr741       O742   2.382       .  S
Zr741       O744   2.381       .  S
Zr741       O747   2.383       .  S
O742        H750   0.966       .  S
O745        H749   0.966       .  S
O746        H751   0.965       .  S
C764        C897   1.628       .  S
C764        C964   1.573       .  S
C764       C1024   1.624       .  S
C764       C1137   1.604       .  S
O765       Zr777   2.465       .  S
O765        C767   1.292       .  A
O766      Zr1955   2.413       .  S
O766        C767   1.285       .  A
C767        C887   1.487       .  S
O768       Zr780   2.406   1_565  S
O768        C770   1.281       .  A
O769       Zr804   2.450       .  S
O769        C770   1.292       .  A
C770        C857   1.473       .  S
O771       Zr780   2.438       .  S
O771        C773   1.286       .  A
O772      Zr1955   2.460       .  S
O772        C773   1.292       .  A
C773        C974   1.522       .  S
O774       Zr777   2.453   1_565  S
O774        C776   1.291       .  A
O775       Zr804   2.420       .  S
O775        C776   1.285       .  A
C776        C877   1.492       .  S
Zr777       O778   2.434       .  S
Zr777       O779   2.433       .  S
Zr777       O783   2.373       .  S
Zr777       O784   2.371   1_545  S
Zr777       O807   2.375   1_545  S
Zr777      O1961   2.368       .  S
O778        H821   0.990       .  S
O779        H820   0.989       .  S
O779        H824   0.990       .  S
Zr780       O781   2.436       .  S
Zr780       O782   2.434       .  S
Zr780       O784   2.378   1_545  S
Zr780       O783   2.368       .  S
Zr780      O1960   2.354       .  S
Zr780       O810   2.374   1_545  S
O781        H822   0.990   1_545  S
O781        H825   0.990   1_545  S
O782        H815   0.990       .  S
O783      Zr1955   2.387       .  S
O784       Zr804   2.399       .  S
O784        H811   0.963       .  S
O785       Zr797   2.436   1_565  S
O785        C787   1.287       .  A
O786      Zr1956   2.445   1_455  S
O786        C787   1.288       .  A
C787        C867   1.507       .  S
O788       Zr800   2.435       .  S
O788        C790   1.287       .  A
O789       Zr803   2.418   1_455  S
O789        C790   1.286       .  A
C790        C834   1.478       .  S
O791       Zr800   2.448   1_565  S
O791        C793   1.290       .  A
O792      Zr1956   2.443   1_455  S
O792        C793   1.287       .  A
C793        C894   1.509       .  S
O794       Zr797   2.426       .  S
O794        C796   1.283       .  A
O795       Zr803   2.463   1_455  S
O795        C796   1.292       .  A
C796        C847   1.521       .  S
Zr797       O798   2.435       .  S
Zr797       O799   2.433       .  S
Zr797       O805   2.367   1_545  S
Zr797       O806   2.370       .  S
Zr797       O809   2.365   1_455  S
Zr797      O1959   2.359   1_445  S
O798        H818   0.990   1_545  S
O798        H823   0.990   1_545  S
O799        H819   0.990   1_545  S
Zr800       O801   2.433       .  S
Zr800       O802   2.435       .  S
Zr800       O806   2.373       .  S
Zr800       O805   2.361   1_545  S
Zr800      O1962   2.365   1_445  S
Zr800       O808   2.363   1_455  S
O801        H817   0.990       .  S
O802        H816   0.990   1_545  S
O802        H826   0.990   1_545  S
Zr803      O1918   2.411       .  S
Zr803      O1924   2.459       .  S
Zr803      O1935   2.389       .  S
Zr803       O806   2.384   1_655  S
Zr803       O808   2.383       .  S
Zr803       O809   2.388       .  S
Zr804      O1938   2.445       .  S
Zr804      O1944   2.443       .  S
Zr804      O1957   2.390       .  S
Zr804       O807   2.383       .  S
Zr804       O810   2.388       .  S
O805      Zr1956   2.387   1_455  S
O805        H813   0.965       .  S
O807      Zr1949   2.360   1_565  S
O808      Zr1932   2.354       .  S
O808        H812   0.965       .  S
O809      Zr1929   2.369       .  S
O809        H814   0.966       .  S
O810      Zr1952   2.368   1_565  S
C827        C874   1.605       .  S
C827        C954   1.600       .  S
C827       C1017   1.610       .  S
C827       C1117   1.612       .  S
C828        C844   1.616       .  S
C828        C917   1.627       .  S
C828        C997   1.620       .  S
C828       C1144   1.574       .  S
C829        C884   1.619       .  S
C829        C907   1.608       .  S
C829       C1054   1.614       .  S
C829       C1094   1.612       .  S
C830        C864   1.595       .  S
C830        C927   1.592       .  S
C830       C1004   1.623       .  S
C830       C1107   1.612       .  S
C831        C837   1.608       .  S
C831        C947   1.613       .  S
C831       C1047   1.615       .  S
C831       C1087   1.605       .  S
C832        C854   1.616       .  S
C832        C934   1.624       .  S
C832       C1037   1.618       .  S
C832       C1074   1.620       .  S
C833        C834   1.396       .  A
C833        C838   1.412       .  A
C833       Br840   1.948       .  S
C834        C835   1.398       .  A
C835        C836   1.412       .  A
C835       Br842   1.944       .  S
C836        C837   1.450       .  A
C836       Br841   1.933       .  S
C837        C838   1.463       .  A
C838       Br839   1.949       .  S
C843        C844   1.454       .  A
C843        C848   1.427       .  A
C843       Br850   1.917       .  S
C844        C845   1.441       .  A
C845        C846   1.406       .  A
C845       Br852   1.924       .  S
C846        C847   1.411       .  A
C846       Br851   1.943       .  S
C847        C848   1.410       .  A
C848       Br849   1.947       .  S
C853        C854   1.456       .  A
C853        C858   1.413       .  A
C853       Br860   1.932       .  S
C854        C855   1.470       .  A
C855        C856   1.417       .  A
C855       Br862   1.949       .  S
C856        C857   1.389       .  A
C856       Br861   1.948       .  S
C857        C858   1.391       .  A
C858       Br859   1.946       .  S
C863        C864   1.447       .  A
C863        C868   1.431       .  A
C863       Br870   1.945       .  S
C864        C865   1.429       .  A
C865        C866   1.384       .  A
C865       Br872   1.936       .  S
C866        C867   1.406       .  A
C866       Br871   1.932       .  S
C867        C868   1.423       .  A
C868       Br869   1.926       .  S
C873        C874   1.455       .  A
C873        C878   1.417       .  A
C873       Br880   1.939       .  S
C874        C875   1.452       .  A
C875        C876   1.404       .  A
C875       Br882   1.945       .  S
C876        C877   1.399       .  A
C876       Br881   1.936       .  S
C877        C878   1.402       .  A
C878       Br879   1.940       .  S
C883        C884   1.454       .  A
C883        C888   1.414       .  A
C883       Br890   1.932       .  S
C884        C885   1.465       .  A
C885        C886   1.421       .  A
C885       Br892   1.940       .  S
C886        C887   1.398       .  A
C886       Br891   1.950       .  S
C887        C888   1.395       .  A
C888       Br889   1.942       .  S
C893        C894   1.399       .  A
C893        C898   1.411       .  A
C893       Br900   1.947       .  S
C894        C895   1.408       .  A
C895        C896   1.426       .  A
C895       Br902   1.934       .  S
C896        C897   1.448       .  A
C896       Br901   1.936       .  S
C897        C898   1.468       .  A
C898       Br899   1.958       .  S
C903        C904   1.402       .  A
C903        C908   1.410       .  A
C903       Br910   1.941       .  S
C904        C905   1.401       .  A
C905        C906   1.416       .  A
C905       Br912   1.941       .  S
C906        C907   1.460       .  A
C906       Br911   1.949       .  S
C907        C908   1.451       .  A
C908       Br909   1.936       .  S
C913        C914   1.398       .  A
C913        C918   1.419       .  A
C913       Br920   1.935       .  S
C914        C915   1.396       .  A
C915        C916   1.404       .  A
C915       Br922   1.928       .  S
C916        C917   1.435       .  A
C916       Br921   1.930       .  S
C917        C918   1.466       .  A
C918       Br919   1.946       .  S
C923        C924   1.396       .  A
C923        C928   1.408       .  A
C923       Br930   1.933       .  S
C924        C925   1.397       .  A
C925        C926   1.412       .  A
C925       Br932   1.936       .  S
C926        C927   1.451       .  A
C926       Br931   1.941       .  S
C927        C928   1.448       .  A
C928       Br929   1.931       .  S
C933        C934   1.469       .  A
C933        C938   1.421       .  A
C933       Br940   1.946       .  S
C934        C935   1.457       .  A
C935        C936   1.416       .  A
C935       Br942   1.928       .  S
C936        C937   1.394       .  A
C936       Br941   1.946       .  S
C937        C938   1.390       .  A
C938       Br939   1.946       .  S
C943        C944   1.401       .  A
C943        C948   1.416       .  A
C943       Br950   1.938       .  S
C944        C945   1.404       .  A
C945        C946   1.413       .  A
C945       Br952   1.946       .  S
C946        C947   1.452       .  A
C946       Br951   1.932       .  S
C947        C948   1.458       .  A
C948       Br949   1.950       .  S
C953        C954   1.448       .  A
C953        C958   1.413       .  A
C953       Br960   1.933       .  S
C954        C955   1.452       .  A
C955        C956   1.409       .  A
C955       Br962   1.940       .  S
C956        C957   1.407       .  A
C956       Br961   1.941       .  S
C957        C958   1.405       .  A
C958       Br959   1.935       .  S
C963        C964   1.448       .  A
C963        C968   1.411       .  A
C963       Br970   1.939       .  S
C964        C965   1.444       .  A
C965        C966   1.410       .  A
C965       Br972   1.940       .  S
C966        C967   1.402       .  A
C966       Br971   1.932       .  S
C967        C968   1.401       .  A
C968       Br969   1.932       .  S
C973        C974   1.414       .  A
C973        C978   1.428       .  A
C973       Br980   1.942       .  S
C974        C975   1.410       .  A
C975        C976   1.403       .  A
C975       Br982   1.940       .  S
C976        C977   1.440       .  A
C976       Br981   1.923       .  S
C977        C978   1.448       .  A
C978       Br979   1.916       .  S
C983        C984   1.398       .  A
C983        C988   1.417       .  A
C983       Br990   1.935       .  S
C984        C985   1.398       .  A
C985        C986   1.404       .  A
C985       Br992   1.927       .  S
C986        C987   1.435       .  A
C986       Br991   1.933       .  S
C987        C988   1.463       .  A
C988       Br989   1.950       .  S
C993        C994   1.412       .  A
C993        C998   1.427       .  A
C993      Br1000   1.937       .  S
C994        C995   1.395       .  A
C995        C996   1.407       .  A
C995      Br1002   1.945       .  S
C996        C997   1.466       .  A
C996      Br1001   1.957       .  S
C997        C998   1.445       .  A
C998       Br999   1.938       .  S
C1003      C1004   1.455       .  A
C1003      C1008   1.415       .  A
C1003     Br1010   1.946       .  S
C1004      C1005   1.440       .  A
C1005      C1006   1.403       .  A
C1005     Br1012   1.945       .  S
C1006      C1007   1.395       .  A
C1006     Br1011   1.932       .  S
C1007      C1008   1.396       .  A
C1008     Br1009   1.935       .  S
C1013      C1014   1.399       .  A
C1013      C1018   1.407       .  A
C1013     Br1020   1.937       .  S
C1014      C1015   1.406       .  A
C1015      C1016   1.419       .  A
C1015     Br1022   1.939       .  S
C1016      C1017   1.450       .  A
C1016     Br1021   1.933       .  S
C1017      C1018   1.455       .  A
C1018     Br1019   1.946       .  S
C1023      C1024   1.466       .  A
C1023      C1028   1.417       .  A
C1023     Br1030   1.947       .  S
C1024      C1025   1.431       .  A
C1025      C1026   1.408       .  A
C1025     Br1032   1.926       .  S
C1026      C1027   1.400       .  A
C1026     Br1031   1.925       .  S
C1027      C1028   1.399       .  A
C1028     Br1029   1.930       .  S
C1033      C1034   1.398       .  A
C1033      C1038   1.418       .  A
C1033     Br1040   1.935       .  S
C1034      C1035   1.398       .  A
C1035      C1036   1.415       .  A
C1035     Br1042   1.944       .  S
C1036      C1037   1.453       .  A
C1036     Br1041   1.927       .  S
C1037      C1038   1.464       .  A
C1038     Br1039   1.953       .  S
C1043      C1044   1.391       .  A
C1043      C1048   1.419       .  A
C1043     Br1050   1.944       .  S
C1044      C1045   1.392       .  A
C1045      C1046   1.411       .  A
C1045     Br1052   1.945       .  S
C1046      C1047   1.456       .  A
C1046     Br1051   1.932       .  S
C1047      C1048   1.466       .  A
C1048     Br1049   1.947       .  S
C1053      C1054   1.462       .  A
C1053      C1058   1.420       .  A
C1053     Br1060   1.954       .  S
C1054      C1055   1.453       .  A
C1055      C1056   1.413       .  A
C1055     Br1062   1.930       .  S
C1056      C1057   1.395       .  A
C1056     Br1061   1.946       .  S
C1057      C1058   1.397       .  A
C1058     Br1059   1.931       .  S
C1063      C1064   1.446       .  A
C1063      C1068   1.435       .  A
C1063     Br1070   1.940       .  S
C1064      C1065   1.443       .  A
C1065      C1066   1.393       .  A
C1065     Br1072   1.951       .  S
C1066      C1067   1.408       .  A
C1066     Br1071   1.939       .  S
C1067      C1068   1.426       .  A
C1068     Br1069   1.940       .  S
C1073      C1074   1.465       .  A
C1073      C1078   1.424       .  A
C1073     Br1080   1.945       .  S
C1074      C1075   1.454       .  A
C1075      C1076   1.414       .  A
C1075     Br1082   1.925       .  S
C1076      C1077   1.395       .  A
C1076     Br1081   1.946       .  S
C1077      C1078   1.395       .  A
C1078     Br1079   1.941       .  S
C1083      C1084   1.399       .  A
C1083      C1088   1.416       .  A
C1083     Br1090   1.944       .  S
C1084      C1085   1.397       .  A
C1085      C1086   1.409       .  A
C1085     Br1092   1.946       .  S
C1086      C1087   1.454       .  A
C1086     Br1091   1.937       .  S
C1087      C1088   1.461       .  A
C1088     Br1089   1.949       .  S
C1093      C1094   1.452       .  A
C1093      C1098   1.415       .  A
C1093     Br1100   1.930       .  S
C1094      C1095   1.462       .  A
C1095      C1096   1.415       .  A
C1095     Br1102   1.953       .  S
C1096      C1097   1.397       .  A
C1096     Br1101   1.940       .  S
C1097      C1098   1.400       .  A
C1098     Br1099   1.945       .  S
C1103      C1104   1.403       .  A
C1103      C1108   1.414       .  A
C1103     Br1110   1.941       .  S
C1104      C1105   1.399       .  A
C1105      C1106   1.412       .  A
C1105     Br1112   1.931       .  S
C1106      C1107   1.449       .  A
C1106     Br1111   1.945       .  S
C1107      C1108   1.443       .  A
C1108     Br1109   1.928       .  S
C1113      C1114   1.398       .  A
C1113      C1118   1.419       .  A
C1113     Br1120   1.945       .  S
C1114      C1115   1.402       .  A
C1115      C1116   1.415       .  A
C1115     Br1122   1.942       .  S
C1116      C1117   1.448       .  A
C1116     Br1121   1.935       .  S
C1117      C1118   1.463       .  A
C1118     Br1119   1.950       .  S
C1123      C1124   1.399       .  A
C1123      C1128   1.411       .  A
C1123     Br1130   1.940       .  S
C1124      C1125   1.401       .  A
C1125      C1126   1.411       .  A
C1125     Br1132   1.930       .  S
C1126      C1127   1.442       .  A
C1126     Br1131   1.939       .  S
C1127      C1128   1.454       .  A
C1128     Br1129   1.941       .  S
C1133      C1134   1.416       .  A
C1133      C1138   1.424       .  A
C1133     Br1140   1.950       .  S
C1134      C1135   1.411       .  A
C1135      C1136   1.400       .  A
C1135     Br1142   1.940       .  S
C1136      C1137   1.436       .  A
C1136     Br1141   1.926       .  S
C1137      C1138   1.448       .  A
C1138     Br1139   1.919       .  S
C1143      C1144   1.451       .  A
C1143      C1148   1.406       .  A
C1143     Br1150   1.933       .  S
C1144      C1145   1.446       .  A
C1145      C1146   1.412       .  A
C1145     Br1152   1.939       .  S
C1146      C1147   1.400       .  A
C1146     Br1151   1.931       .  S
C1147      C1148   1.395       .  A
C1148     Br1149   1.940       .  S
O1153     Zr1165   2.428       .  S
O1153      C1155   1.286       .  A
O1154     Zr1191   2.425       .  S
O1154      C1155   1.287       .  A
C1155      C1660   1.479       .  S
O1156     Zr1168   2.439       .  S
O1156      C1158   1.287       .  A
O1157     Zr1192   2.453       .  S
O1157      C1158   1.293       .  A
C1158      C1680   1.491       .  S
O1159     Zr1168   2.449       .  S
O1159      C1161   1.290       .  A
O1160     Zr1191   2.401       .  S
O1160      C1161   1.282       .  A
C1161      C1723   1.470       .  S
O1162     Zr1165   2.432       .  S
O1162      C1164   1.285       .  A
O1163     Zr1192   2.438       .  S
O1163      C1164   1.287       .  A
C1164      C1710   1.510       .  S
Zr1165     O1166   2.434       .  S
Zr1165     O1167   2.437       .  S
Zr1165     O1171   2.371       .  S
Zr1165     O1172   2.366       .  S
Zr1165     O1195   2.368       .  S
Zr1165     O1197   2.369       .  S
O1166      H1209   0.990       .  S
O1167      H1208   0.990       .  S
O1167      H1212   0.990       .  S
Zr1168     O1169   2.436       .  S
Zr1168     O1170   2.431       .  S
Zr1168     O1172   2.372       .  S
Zr1168     O1171   2.367       .  S
Zr1168     O1196   2.368       .  S
Zr1168     O1198   2.379       .  S
O1169      H1210   0.990       .  S
O1169      H1213   0.990       .  S
O1170      H1203   0.989       .  S
O1171     Zr1191   2.387       .  S
O1172     Zr1192   2.393       .  S
O1172      H1199   0.965       .  S
O1173     Zr1185   2.415       .  S
O1173      C1175   1.284       .  A
O1174     Zr1192   2.458       .  S
O1174      C1175   1.294       .  A
C1175      C1653   1.485       .  S
O1176     Zr1188   2.420       .  S
O1176      C1178   1.284       .  A
O1177     Zr1191   2.442       .  S
O1177      C1178   1.290       .  A
C1178      C1673   1.486       .  S
O1179     Zr1188   2.421       .  S
O1179      C1181   1.284       .  A
O1180     Zr1192   2.457       .  S
O1180      C1181   1.293       .  A
C1181      C1690   1.491       .  S
O1182     Zr1185   2.442       .  S
O1182      C1184   1.288       .  A
O1183     Zr1191   2.416       .  S
O1183      C1184   1.285       .  A
C1184      C1700   1.478       .  S
Zr1185     O1186   2.432       .  S
Zr1185     O1187   2.433       .  S
Zr1185     O1193   2.379       .  S
Zr1185     O1194   2.365       .  S
Zr1185     O1197   2.357       .  S
Zr1185     O1195   2.373       .  S
O1186      H1206   0.989       .  S
O1186      H1211   0.990       .  S
O1187      H1207   0.990       .  S
Zr1188     O1189   2.429       .  S
Zr1188     O1190   2.435       .  S
Zr1188     O1194   2.373       .  S
Zr1188     O1193   2.368       .  S
Zr1188     O1198   2.367       .  S
Zr1188     O1196   2.359       .  S
O1189      H1205   0.989       .  S
O1190      H1204   0.990       .  S
O1190      H1214   0.990       .  S
Zr1191     O1194   2.373       .  S
Zr1191     O1196   2.381       .  S
Zr1191     O1197   2.382       .  S
Zr1192     O1193   2.391       .  S
Zr1192     O1195   2.390       .  S
Zr1192     O1198   2.386       .  S
O1193      H1201   0.966       .  S
O1196      H1200   0.966       .  S
O1197      H1202   0.966       .  S
O1215     Zr1227   2.457       .  S
O1215      C1217   1.291       .  A
O1216     Zr1829   2.439       .  S
O1216      C1217   1.286       .  A
C1217      C1643   1.517       .  S
O1218     Zr1230   2.468       .  S
O1218      C1220   1.292       .  A
O1219      C1220   1.288       .  A
C1220      C1603   1.489       .  S
O1221     Zr1230   2.427       .  S
O1221      C1223   1.286       .  A
O1222      C1223   1.291       .  A
C1223      C1620   1.477       .  S
O1224     Zr1227   2.443       .  S
O1224      C1226   1.289       .  A
O1225     Zr1830   2.444   1_655  S
O1225      C1226   1.290       .  A
C1226      C1610   1.494       .  S
Zr1227     O1228   2.434       .  S
Zr1227     O1229   2.435       .  S
Zr1227     O1233   2.363       .  S
Zr1227     O1234   2.374       .  S
Zr1227     O1833   2.368       .  S
Zr1227     O1835   2.365       .  S
O1228      H1271   0.990       .  S
O1229      H1270   0.989       .  S
O1229      H1274   0.989       .  S
Zr1230     O1231   2.436       .  S
Zr1230     O1232   2.435       .  S
Zr1230     O1834   2.385       .  S
Zr1230     O1836   2.371       .  S
O1231      H1272   0.990       .  S
O1231      H1275   0.990       .  S
O1232      H1265   0.990       .  S
O1233     Zr1829   2.393       .  S
O1234     Zr1830   2.391   1_655  S
O1234      H1261   0.967       .  S
O1235     Zr1247   2.454       .  S
O1235      C1237   1.291       .  A
O1236     Zr1254   2.428   1_655  S
O1236      C1237   1.286       .  A
C1237      C1590   1.497       .  S
O1238     Zr1250   2.458       .  S
O1238      C1240   1.293       .  A
O1239      C1240   1.284       .  A
C1240      C1570   1.508       .  S
O1241     Zr1250   2.427       .  S
O1241      C1243   1.284       .  A
O1242      C1243   1.296       .  A
C1243      C1583   1.484       .  S
O1244     Zr1247   2.427       .  S
O1244      C1246   1.286       .  A
O1245     Zr1253   2.453   1_554  S
O1245      C1246   1.292       .  A
C1246      C1633   1.487       .  S
Zr1247     O1248   2.434       .  S
Zr1247     O1249   2.429       .  S
Zr1247     O1255   2.357   1_655  S
Zr1247     O1256   2.373   1_655  S
Zr1247     O1259   2.381       .  S
Zr1247     O1257   2.361       .  S
O1248      H1268   0.990       .  S
O1248      H1273   0.990       .  S
O1249      H1269   0.990       .  S
Zr1250     O1251   2.431       .  S
Zr1250     O1252   2.434       .  S
Zr1250     O1260   2.381   1_554  S
Zr1250     O1258   2.359   1_554  S
O1251      H1267   0.990       .  S
O1252      H1266   0.990       .  S
O1252      H1276   0.990       .  S
Zr1253     O1792   2.439       .  S
Zr1253     O1809   2.393       .  S
Zr1253     O1256   2.388   1_656  S
Zr1253     O1259   2.388   1_556  S
Zr1254     O1801   2.443   1_454  S
Zr1254     O1810   2.390   1_454  S
Zr1254     O1255   2.388       .  S
Zr1254     O1257   2.381   1_455  S
O1255      H1263   0.965       .  S
O1257     Zr1803   2.368   1_554  S
O1258     Zr1806   2.386       .  S
O1258      H1262   0.965       .  S
O1259     Zr1803   2.365   1_554  S
O1259      H1264   0.966       .  S
O1260     Zr1806   2.371       .  S
C1277      C1553   1.613       .  S
C1277      C1563   1.614       .  S
C1277      C1640   1.617       .  S
C1277      C1703   1.583       .  S
O1278     Zr1290   2.440       .  S
O1278      C1280   1.286       .  A
O1279     Zr1892   2.442       .  S
O1279      C1280   1.290       .  A
C1280      C1560   1.479       .  S
O1281     Zr1293   2.437   1_565  S
O1281      C1283   1.286       .  A
O1282     Zr1893   2.412       .  S
O1282      C1283   1.284       .  A
C1283      C1543   1.477       .  S
O1284     Zr1293   2.422       .  S
O1284      C1286   1.285       .  A
O1285     Zr1892   2.448       .  S
O1285      C1286   1.291       .  A
C1286      C1520   1.491       .  S
O1287     Zr1290   2.428   1_565  S
O1287      C1289   1.285       .  A
O1288     Zr1893   2.457       .  S
O1288      C1289   1.293       .  A
C1289      C1513   1.487       .  S
Zr1290     O1291   2.435       .  S
Zr1290     O1292   2.435       .  S
Zr1290     O1296   2.374       .  S
Zr1290     O1297   2.378   1_545  S
Zr1290     O1896   2.376   1_545  S
Zr1290     O1898   2.367       .  S
O1291      H1334   0.990       .  S
O1292      H1333   0.990       .  S
O1292      H1337   0.990       .  S
Zr1293     O1294   2.435       .  S
Zr1293     O1295   2.434       .  S
Zr1293     O1297   2.367   1_545  S
Zr1293     O1296   2.378       .  S
Zr1293     O1897   2.369       .  S
Zr1293     O1899   2.360   1_545  S
O1294      H1335   0.990   1_545  S
O1294      H1338   0.990   1_545  S
O1295      H1328   0.990       .  S
O1296     Zr1892   2.385       .  S
O1297     Zr1893   2.380       .  S
O1297      H1324   0.967       .  S
O1298     Zr1310   2.470   1_565  S
O1298      C1300   1.294       .  A
O1299     Zr1317   2.411       .  S
O1299      C1300   1.283       .  A
C1300      C1533   1.499       .  S
O1301     Zr1313   2.448       .  S
O1301      C1303   1.288       .  A
O1302     Zr1316   2.437       .  S
O1302      C1303   1.289       .  A
C1303      C1490   1.481       .  S
O1304     Zr1313   2.438   1_565  S
O1304      C1306   1.288       .  A
O1305     Zr1317   2.429       .  S
O1305      C1306   1.288       .  A
C1306      C1500   1.478       .  S
O1307     Zr1310   2.438       .  S
O1307      C1309   1.288       .  A
O1308     Zr1316   2.438       .  S
O1308      C1309   1.289       .  A
C1309      C1480   1.489       .  S
Zr1310     O1311   2.429       .  S
Zr1310     O1312   2.434       .  S
Zr1310     O1318   2.360   1_545  S
Zr1310     O1319   2.376       .  S
Zr1310     O1322   2.380       .  S
Zr1310     O1320   2.372   1_545  S
O1311      H1331   0.988   1_545  S
O1311      H1336   0.990       .  S
O1312      H1332   0.990       .  S
Zr1313     O1314   2.435       .  S
Zr1313     O1315   2.433       .  S
Zr1313     O1319   2.367       .  S
Zr1313     O1318   2.370   1_545  S
Zr1313     O1323   2.374   1_545  S
Zr1313     O1321   2.368       .  S
O1314      H1330   0.990       .  S
O1315      H1329   0.989   1_545  S
O1315      H1339   0.990       .  S
Zr1316     O1855   2.440   1_554  S
Zr1316     O1861   2.446   1_554  S
Zr1316     O1872   2.385   1_554  S
Zr1316     O1319   2.385       .  S
Zr1316     O1321   2.388       .  S
Zr1316     O1322   2.391       .  S
Zr1317     O1858   2.413   1_554  S
Zr1317     O1864   2.457   1_554  S
Zr1317     O1873   2.380   1_554  S
Zr1317     O1318   2.381       .  S
Zr1317     O1320   2.383       .  S
Zr1317     O1323   2.384       .  S
O1318      H1326   0.966       .  S
O1320     Zr1866   2.377   1_564  S
O1321     Zr1869   2.370   1_554  S
O1321      H1325   0.966       .  S
O1322     Zr1866   2.367   1_554  S
O1322      H1327   0.966       .  S
O1323     Zr1869   2.361   1_564  S
C1340      C1473   1.627       .  S
C1340      C1540   1.573       .  S
C1340      C1600   1.623       .  S
C1340      C1713   1.603       .  S
O1341     Zr1353   2.460       .  S
O1341      C1343   1.292       .  A
O1342      C1343   1.285       .  A
C1343      C1463   1.486       .  S
O1344     Zr1356   2.407   1_565  S
O1344      C1346   1.281       .  A
O1345     Zr1380   2.445       .  S
O1345      C1346   1.291       .  A
C1346      C1433   1.472       .  S
O1347     Zr1356   2.438       .  S
O1347      C1349   1.286       .  A
O1348      C1349   1.291       .  A
C1349      C1550   1.521       .  S
O1350     Zr1353   2.450   1_565  S
O1350      C1352   1.291       .  A
O1351     Zr1380   2.419       .  S
O1351      C1352   1.284       .  A
C1352      C1453   1.491       .  S
Zr1353     O1354   2.434       .  S
Zr1353     O1355   2.432       .  S
Zr1353     O1359   2.374       .  S
Zr1353     O1360   2.370   1_545  S
Zr1353     O1383   2.374   1_545  S
O1354      H1397   0.990       .  S
O1355      H1396   0.989       .  S
O1355      H1400   0.990       .  S
Zr1356     O1357   2.436       .  S
Zr1356     O1358   2.433       .  S
Zr1356     O1360   2.378   1_545  S
Zr1356     O1359   2.367       .  S
Zr1356     O1386   2.374   1_545  S
O1357      H1398   0.990   1_545  S
O1357      H1401   0.990       .  S
O1358      H1391   0.990       .  S
O1360     Zr1380   2.399       .  S
O1360      H1387   0.963       .  S
O1361     Zr1373   2.435   1_565  S
O1361      C1363   1.286       .  A
O1362      C1363   1.288       .  A
C1363      C1443   1.507       .  S
O1364     Zr1376   2.434       .  S
O1364      C1366   1.287       .  A
O1365     Zr1379   2.421       .  S
O1365      C1366   1.286       .  A
C1366      C1410   1.479       .  S
O1367     Zr1376   2.448   1_565  S
O1367      C1369   1.290       .  A
O1368      C1369   1.287       .  A
C1369      C1470   1.508       .  S
O1370     Zr1373   2.424       .  S
O1370      C1372   1.282       .  A
O1371     Zr1379   2.463       .  S
O1371      C1372   1.292       .  A
C1372      C1423   1.520       .  S
Zr1373     O1374   2.436       .  S
Zr1373     O1375   2.432       .  S
Zr1373     O1381   2.367   1_545  S
Zr1373     O1382   2.371       .  S
Zr1373     O1385   2.366       .  S
O1374      H1394   0.990   1_545  S
O1374      H1399   0.990   1_545  S
O1375      H1395   0.990   1_545  S
Zr1376     O1377   2.433       .  S
Zr1376     O1378   2.436       .  S
Zr1376     O1382   2.372       .  S
Zr1376     O1381   2.359   1_545  S
Zr1376     O1384   2.364       .  S
O1377      H1393   0.990       .  S
O1378      H1392   0.990   1_545  S
O1378      H1402   0.990   1_545  S
Zr1379     O1382   2.384       .  S
Zr1379     O1384   2.385       .  S
Zr1379     O1385   2.389       .  S
Zr1380     O1383   2.381       .  S
Zr1380     O1386   2.388       .  S
O1381      H1389   0.965       .  S
O1384      H1388   0.966       .  S
O1385      H1390   0.966       .  S
C1403      C1450   1.605       .  S
C1403      C1530   1.601       .  S
C1403      C1593   1.610       .  S
C1403      C1693   1.611       .  S
C1404      C1420   1.616       .  S
C1404      C1493   1.627       .  S
C1404      C1573   1.620       .  S
C1404      C1720   1.574       .  S
C1405      C1460   1.619       .  S
C1405      C1483   1.607       .  S
C1405      C1630   1.613       .  S
C1405      C1670   1.612       .  S
C1406      C1440   1.594       .  S
C1406      C1503   1.596       .  S
C1406      C1580   1.624       .  S
C1406      C1683   1.611       .  S
C1407      C1413   1.608       .  S
C1407      C1523   1.611       .  S
C1407      C1623   1.615       .  S
C1407      C1663   1.603       .  S
C1408      C1430   1.618       .  S
C1408      C1510   1.624       .  S
C1408      C1613   1.619       .  S
C1408      C1650   1.619       .  S
C1409      C1410   1.396       .  A
C1409      C1414   1.413       .  A
C1409     Br1416   1.947       .  S
C1410      C1411   1.398       .  A
C1411      C1412   1.412       .  A
C1411     Br1418   1.944       .  S
C1412      C1413   1.450       .  A
C1412     Br1417   1.932       .  S
C1413      C1414   1.463       .  A
C1414     Br1415   1.950       .  S
C1419      C1420   1.453       .  A
C1419      C1424   1.427       .  A
C1419     Br1426   1.917       .  S
C1420      C1421   1.440       .  A
C1421      C1422   1.406       .  A
C1421     Br1428   1.925       .  S
C1422      C1423   1.413       .  A
C1422     Br1427   1.944       .  S
C1423      C1424   1.411       .  A
C1424     Br1425   1.947       .  S
C1429      C1430   1.457       .  A
C1429      C1434   1.412       .  A
C1429     Br1436   1.931       .  S
C1430      C1431   1.470       .  A
C1431      C1432   1.417       .  A
C1431     Br1438   1.949       .  S
C1432      C1433   1.388       .  A
C1432     Br1437   1.948       .  S
C1433      C1434   1.390       .  A
C1434     Br1435   1.946       .  S
C1439      C1440   1.448       .  A
C1439      C1444   1.431       .  A
C1439     Br1446   1.945       .  S
C1440      C1441   1.428       .  A
C1441      C1442   1.383       .  A
C1441     Br1448   1.936       .  S
C1442      C1443   1.406       .  A
C1442     Br1447   1.931       .  S
C1443      C1444   1.422       .  A
C1444     Br1445   1.927       .  S
C1449      C1450   1.455       .  A
C1449      C1454   1.416       .  A
C1449     Br1456   1.939       .  S
C1450      C1451   1.453       .  A
C1451      C1452   1.404       .  A
C1451     Br1458   1.944       .  S
C1452      C1453   1.398       .  A
C1452     Br1457   1.937       .  S
C1453      C1454   1.401       .  A
C1454     Br1455   1.940       .  S
C1459      C1460   1.455       .  A
C1459      C1464   1.414       .  A
C1459     Br1466   1.931       .  S
C1460      C1461   1.464       .  A
C1461      C1462   1.421       .  A
C1461     Br1468   1.939       .  S
C1462      C1463   1.397       .  A
C1462     Br1467   1.950       .  S
C1463      C1464   1.395       .  A
C1464     Br1465   1.943       .  S
C1469      C1470   1.398       .  A
C1469      C1474   1.410       .  A
C1469     Br1476   1.946       .  S
C1470      C1471   1.407       .  A
C1471      C1472   1.426       .  A
C1471     Br1478   1.934       .  S
C1472      C1473   1.448       .  A
C1472     Br1477   1.936       .  S
C1473      C1474   1.468       .  A
C1474     Br1475   1.958       .  S
C1479      C1480   1.402       .  A
C1479      C1484   1.411       .  A
C1479     Br1486   1.941       .  S
C1480      C1481   1.400       .  A
C1481      C1482   1.415       .  A
C1481     Br1488   1.941       .  S
C1482      C1483   1.460       .  A
C1482     Br1487   1.949       .  S
C1483      C1484   1.452       .  A
C1484     Br1485   1.937       .  S
C1489      C1490   1.399       .  A
C1489      C1494   1.419       .  A
C1489     Br1496   1.933       .  S
C1490      C1491   1.397       .  A
C1491      C1492   1.405       .  A
C1491     Br1498   1.927       .  S
C1492      C1493   1.434       .  A
C1492     Br1497   1.929       .  S
C1493      C1494   1.466       .  A
C1494     Br1495   1.946       .  S
C1499      C1500   1.395       .  A
C1499      C1504   1.409       .  A
C1499     Br1506   1.933       .  S
C1500      C1501   1.397       .  A
C1501      C1502   1.414       .  A
C1501     Br1508   1.935       .  S
C1502      C1503   1.452       .  A
C1502     Br1507   1.940       .  S
C1503      C1504   1.448       .  A
C1504     Br1505   1.930       .  S
C1509      C1510   1.469       .  A
C1509      C1514   1.422       .  A
C1509     Br1516   1.946       .  S
C1510      C1511   1.457       .  A
C1511      C1512   1.417       .  A
C1511     Br1518   1.929       .  S
C1512      C1513   1.394       .  A
C1512     Br1517   1.945       .  S
C1513      C1514   1.391       .  A
C1514     Br1515   1.945       .  S
C1519      C1520   1.400       .  A
C1519      C1524   1.415       .  A
C1519     Br1526   1.937       .  S
C1520      C1521   1.404       .  A
C1521      C1522   1.413       .  A
C1521     Br1528   1.947       .  S
C1522      C1523   1.453       .  A
C1522     Br1527   1.931       .  S
C1523      C1524   1.458       .  A
C1524     Br1525   1.950       .  S
C1529      C1530   1.450       .  A
C1529      C1534   1.415       .  A
C1529     Br1536   1.934       .  S
C1530      C1531   1.452       .  A
C1531      C1532   1.408       .  A
C1531     Br1538   1.940       .  S
C1532      C1533   1.406       .  A
C1532     Br1537   1.941       .  S
C1533      C1534   1.405       .  A
C1534     Br1535   1.936       .  S
C1539      C1540   1.448       .  A
C1539      C1544   1.410       .  A
C1539     Br1546   1.938       .  S
C1540      C1541   1.444       .  A
C1541      C1542   1.410       .  A
C1541     Br1548   1.940       .  S
C1542      C1543   1.402       .  A
C1542     Br1547   1.933       .  S
C1543      C1544   1.401       .  A
C1544     Br1545   1.934       .  S
C1549      C1550   1.414       .  A
C1549      C1554   1.428       .  A
C1549     Br1556   1.943       .  S
C1550      C1551   1.409       .  A
C1551      C1552   1.403       .  A
C1551     Br1558   1.941       .  S
C1552      C1553   1.441       .  A
C1552     Br1557   1.924       .  S
C1553      C1554   1.448       .  A
C1554     Br1555   1.916       .  S
C1559      C1560   1.398       .  A
C1559      C1564   1.417       .  A
C1559     Br1566   1.935       .  S
C1560      C1561   1.398       .  A
C1561      C1562   1.404       .  A
C1561     Br1568   1.927       .  S
C1562      C1563   1.435       .  A
C1562     Br1567   1.932       .  S
C1563      C1564   1.463       .  A
C1564     Br1565   1.949       .  S
C1569      C1570   1.412       .  A
C1569      C1574   1.427       .  A
C1569     Br1576   1.936       .  S
C1570      C1571   1.395       .  A
C1571      C1572   1.408       .  A
C1571     Br1578   1.945       .  S
C1572      C1573   1.467       .  A
C1572     Br1577   1.957       .  S
C1573      C1574   1.444       .  A
C1574     Br1575   1.938       .  S
C1579      C1580   1.455       .  A
C1579      C1584   1.416       .  A
C1579     Br1586   1.946       .  S
C1580      C1581   1.439       .  A
C1581      C1582   1.403       .  A
C1581     Br1588   1.944       .  S
C1582      C1583   1.395       .  A
C1582     Br1587   1.932       .  S
C1583      C1584   1.396       .  A
C1584     Br1585   1.934       .  S
C1589      C1590   1.399       .  A
C1589      C1594   1.406       .  A
C1589     Br1596   1.937       .  S
C1590      C1591   1.404       .  A
C1591      C1592   1.419       .  A
C1591     Br1598   1.939       .  S
C1592      C1593   1.451       .  A
C1592     Br1597   1.932       .  S
C1593      C1594   1.455       .  A
C1594     Br1595   1.946       .  S
C1599      C1600   1.465       .  A
C1599      C1604   1.417       .  A
C1599     Br1606   1.946       .  S
C1600      C1601   1.430       .  A
C1601      C1602   1.409       .  A
C1601     Br1608   1.926       .  S
C1602      C1603   1.401       .  A
C1602     Br1607   1.925       .  S
C1603      C1604   1.400       .  A
C1604     Br1605   1.929       .  S
C1609      C1610   1.399       .  A
C1609      C1614   1.418       .  A
C1609     Br1616   1.934       .  S
C1610      C1611   1.398       .  A
C1611      C1612   1.416       .  A
C1611     Br1618   1.945       .  S
C1612      C1613   1.454       .  A
C1612     Br1617   1.927       .  S
C1613      C1614   1.462       .  A
C1614     Br1615   1.952       .  S
C1619      C1620   1.392       .  A
C1619      C1624   1.419       .  A
C1619     Br1626   1.943       .  S
C1620      C1621   1.391       .  A
C1621      C1622   1.411       .  A
C1621     Br1628   1.945       .  S
C1622      C1623   1.457       .  A
C1622     Br1627   1.931       .  S
C1623      C1624   1.466       .  A
C1624     Br1625   1.948       .  S
C1629      C1630   1.462       .  A
C1629      C1634   1.421       .  A
C1629     Br1636   1.954       .  S
C1630      C1631   1.454       .  A
C1631      C1632   1.413       .  A
C1631     Br1638   1.929       .  S
C1632      C1633   1.395       .  A
C1632     Br1637   1.946       .  S
C1633      C1634   1.397       .  A
C1634     Br1635   1.931       .  S
C1639      C1640   1.445       .  A
C1639      C1644   1.434       .  A
C1639     Br1646   1.939       .  S
C1640      C1641   1.443       .  A
C1641      C1642   1.392       .  A
C1641     Br1648   1.952       .  S
C1642      C1643   1.407       .  A
C1642     Br1647   1.938       .  S
C1643      C1644   1.425       .  A
C1644     Br1645   1.940       .  S
C1649      C1650   1.465       .  A
C1649      C1654   1.423       .  A
C1649     Br1656   1.945       .  S
C1650      C1651   1.454       .  A
C1651      C1652   1.414       .  A
C1651     Br1658   1.926       .  S
C1652      C1653   1.395       .  A
C1652     Br1657   1.946       .  S
C1653      C1654   1.395       .  A
C1654     Br1655   1.941       .  S
C1659      C1660   1.398       .  A
C1659      C1664   1.415       .  A
C1659     Br1666   1.944       .  S
C1660      C1661   1.397       .  A
C1661      C1662   1.409       .  A
C1661     Br1668   1.946       .  S
C1662      C1663   1.454       .  A
C1662     Br1667   1.936       .  S
C1663      C1664   1.461       .  A
C1664     Br1665   1.950       .  S
C1669      C1670   1.453       .  A
C1669      C1674   1.415       .  A
C1669     Br1676   1.931       .  S
C1670      C1671   1.461       .  A
C1671      C1672   1.414       .  A
C1671     Br1678   1.953       .  S
C1672      C1673   1.397       .  A
C1672     Br1677   1.940       .  S
C1673      C1674   1.400       .  A
C1674     Br1675   1.945       .  S
C1679      C1680   1.403       .  A
C1679      C1684   1.415       .  A
C1679     Br1686   1.941       .  S
C1680      C1681   1.399       .  A
C1681      C1682   1.412       .  A
C1681     Br1688   1.931       .  S
C1682      C1683   1.449       .  A
C1682     Br1687   1.945       .  S
C1683      C1684   1.443       .  A
C1684     Br1685   1.927       .  S
C1689      C1690   1.398       .  A
C1689      C1694   1.419       .  A
C1689     Br1696   1.944       .  S
C1690      C1691   1.403       .  A
C1691      C1692   1.415       .  A
C1691     Br1698   1.941       .  S
C1692      C1693   1.448       .  A
C1692     Br1697   1.935       .  S
C1693      C1694   1.462       .  A
C1694     Br1695   1.950       .  S
C1699      C1700   1.399       .  A
C1699      C1704   1.411       .  A
C1699     Br1706   1.941       .  S
C1700      C1701   1.401       .  A
C1701      C1702   1.410       .  A
C1701     Br1708   1.929       .  S
C1702      C1703   1.441       .  A
C1702     Br1707   1.939       .  S
C1703      C1704   1.455       .  A
C1704     Br1705   1.941       .  S
C1709      C1710   1.416       .  A
C1709      C1714   1.423       .  A
C1709     Br1716   1.951       .  S
C1710      C1711   1.411       .  A
C1711      C1712   1.399       .  A
C1711     Br1718   1.939       .  S
C1712      C1713   1.436       .  A
C1712     Br1717   1.927       .  S
C1713      C1714   1.447       .  A
C1714     Br1715   1.918       .  S
C1719      C1720   1.451       .  A
C1719      C1724   1.406       .  A
C1719     Br1726   1.934       .  S
C1720      C1721   1.446       .  A
C1721      C1722   1.412       .  A
C1721     Br1728   1.939       .  S
C1722      C1723   1.400       .  A
C1722     Br1727   1.931       .  S
C1723      C1724   1.395       .  A
C1724     Br1725   1.940       .  S
O1729     Zr1741   2.428       .  S
O1729      C1731   1.286       .  A
O1730     Zr1767   2.427       .  S
O1730      C1731   1.287       .  A
C1731      C2236   1.480       .  S
O1732     Zr1744   2.438       .  S
O1732      C1734   1.287       .  A
O1733     Zr1768   2.453       .  S
O1733      C1734   1.294       .  A
C1734      C2256   1.491       .  S
O1735     Zr1744   2.448       .  S
O1735      C1737   1.289       .  A
O1736     Zr1767   2.399       .  S
O1736      C1737   1.282       .  A
C1737      C2299   1.470       .  S
O1738     Zr1741   2.429       .  S
O1738      C1740   1.284       .  A
O1739     Zr1768   2.438       .  S
O1739      C1740   1.287       .  A
C1740      C2286   1.510       .  S
Zr1741     O1742   2.434       .  S
Zr1741     O1743   2.436       .  S
Zr1741     O1747   2.371       .  S
Zr1741     O1748   2.366       .  S
Zr1741     O1771   2.367       .  S
Zr1741     O1773   2.368       .  S
O1742      H1785   0.990       .  S
O1743      H1784   0.990       .  S
O1743      H1788   0.990       .  S
Zr1744     O1745   2.435       .  S
Zr1744     O1746   2.432       .  S
Zr1744     O1748   2.372       .  S
Zr1744     O1747   2.367       .  S
Zr1744     O1772   2.368       .  S
Zr1744     O1774   2.379       .  S
O1745      H1786   0.990       .  S
O1745      H1789   0.990       .  S
O1746      H1779   0.989       .  S
O1747     Zr1767   2.386       .  S
O1748     Zr1768   2.394       .  S
O1748      H1775   0.965       .  S
O1749     Zr1761   2.417       .  S
O1749      C1751   1.284       .  A
O1750     Zr1768   2.460       .  S
O1750      C1751   1.294       .  A
C1751      C2229   1.486       .  S
O1752     Zr1764   2.418       .  S
O1752      C1754   1.283       .  A
O1753     Zr1767   2.442       .  S
O1753      C1754   1.290       .  A
C1754      C2249   1.484       .  S
O1755     Zr1764   2.419       .  S
O1755      C1757   1.283       .  A
O1756     Zr1768   2.454       .  S
O1756      C1757   1.293       .  A
C1757      C2266   1.489       .  S
O1758     Zr1761   2.441       .  S
O1758      C1760   1.287       .  A
O1759     Zr1767   2.414       .  S
O1759      C1760   1.284       .  A
C1760      C2276   1.477       .  S
Zr1761     O1762   2.433       .  S
Zr1761     O1763   2.434       .  S
Zr1761     O1769   2.379       .  S
Zr1761     O1770   2.365       .  S
Zr1761     O1773   2.358       .  S
Zr1761     O1771   2.373       .  S
O1762      H1782   0.989       .  S
O1762      H1787   0.990       .  S
O1763      H1783   0.990       .  S
Zr1764     O1765   2.429       .  S
Zr1764     O1766   2.435       .  S
Zr1764     O1770   2.373       .  S
Zr1764     O1769   2.369       .  S
Zr1764     O1774   2.366       .  S
Zr1764     O1772   2.359       .  S
O1765      H1781   0.989       .  S
O1766      H1780   0.990       .  S
O1766      H1790   0.990       .  S
Zr1767     O1770   2.374       .  S
Zr1767     O1772   2.383       .  S
Zr1767     O1773   2.382       .  S
Zr1768     O1769   2.391       .  S
Zr1768     O1771   2.389       .  S
Zr1768     O1774   2.387       .  S
O1769      H1777   0.966       .  S
O1772      H1776   0.966       .  S
O1773      H1778   0.966       .  S
O1791     Zr1803   2.458       .  S
O1791      C1793   1.291       .  A
O1792      C1793   1.286       .  A
C1793      C2219   1.518       .  S
O1794     Zr1806   2.466       .  S
O1794      C1796   1.291       .  A
O1795      C1796   1.289       .  A
C1796      C2179   1.490       .  S
O1797     Zr1806   2.424       .  S
O1797      C1799   1.286       .  A
O1798      C1799   1.291       .  A
C1799      C2196   1.476       .  S
O1800     Zr1803   2.443       .  S
O1800      C1802   1.289       .  A
O1801      C1802   1.290       .  A
C1802      C2186   1.492       .  S
Zr1803     O1804   2.434       .  S
Zr1803     O1805   2.435       .  S
Zr1803     O1809   2.362       .  S
Zr1803     O1810   2.374       .  S
O1804      H1847   0.990       .  S
O1805      H1846   0.989       .  S
O1805      H1850   0.989       .  S
Zr1806     O1807   2.436       .  S
Zr1806     O1808   2.435       .  S
O1807      H1848   0.990       .  S
O1807      H1851   0.990       .  S
O1808      H1841   0.990       .  S
O1810      H1837   0.967       .  S
O1811     Zr1823   2.451       .  S
O1811      C1813   1.290       .  A
O1812     Zr1830   2.431   1_655  S
O1812      C1813   1.287       .  A
C1813      C2166   1.498       .  S
O1814     Zr1826   2.458       .  S
O1814      C1816   1.293       .  A
O1815      C1816   1.285       .  A
C1816      C2146   1.508       .  S
O1817     Zr1826   2.425       .  S
O1817      C1819   1.283       .  A
O1818      C1819   1.296       .  A
C1819      C2159   1.484       .  S
O1820     Zr1823   2.424       .  S
O1820      C1822   1.285       .  A
O1821     Zr1829   2.452       .  S
O1821      C1822   1.291       .  A
C1822      C2209   1.486       .  S
Zr1823     O1824   2.434       .  S
Zr1823     O1825   2.429       .  S
Zr1823     O1831   2.356   1_655  S
Zr1823     O1832   2.373   1_655  S
Zr1823     O1835   2.381       .  S
Zr1823     O1833   2.361       .  S
O1824      H1844   0.990       .  S
O1824      H1849   0.990       .  S
O1825      H1845   0.990       .  S
Zr1826     O1827   2.431       .  S
Zr1826     O1828   2.435       .  S
Zr1826     O1836   2.381       .  S
Zr1826     O1834   2.359       .  S
O1827      H1843   0.990       .  S
O1828      H1842   0.990       .  S
O1828      H1852   0.990       .  S
Zr1829     O1832   2.388   1_655  S
Zr1829     O1835   2.387       .  S
Zr1830     O1831   2.388       .  S
Zr1830     O1833   2.380   1_455  S
O1831      H1839   0.965       .  S
O1834      H1838   0.965       .  S
O1835      H1840   0.966       .  S
C1853      C2129   1.614       .  S
C1853      C2139   1.614       .  S
C1853      C2216   1.618       .  S
C1853      C2279   1.583       .  S
O1854     Zr1866   2.442       .  S
O1854      C1856   1.286       .  A
O1855      C1856   1.290       .  A
C1856      C2136   1.480       .  S
O1857     Zr1869   2.439   1_565  S
O1857      C1859   1.287       .  A
O1858      C1859   1.284       .  A
C1859      C2119   1.477       .  S
O1860     Zr1869   2.425       .  S
O1860      C1862   1.285       .  A
O1861      C1862   1.290       .  A
C1862      C2096   1.492       .  S
O1863     Zr1866   2.429   1_565  S
O1863      C1865   1.286       .  A
O1864      C1865   1.293       .  A
C1865      C2089   1.486       .  S
Zr1866     O1867   2.436       .  S
Zr1866     O1868   2.436       .  S
Zr1866     O1872   2.373       .  S
Zr1866     O1873   2.378   1_545  S
O1867      H1910   0.990       .  S
O1868      H1909   0.990       .  S
O1868      H1913   0.990       .  S
Zr1869     O1870   2.436       .  S
Zr1869     O1871   2.433       .  S
Zr1869     O1873   2.368   1_545  S
Zr1869     O1872   2.378       .  S
O1870      H1911   0.990   1_545  S
O1870      H1914   0.990   1_545  S
O1871      H1904   0.990       .  S
O1873      H1900   0.967       .  S
O1874     Zr1886   2.471   1_565  S
O1874      C1876   1.294       .  A
O1875     Zr1893   2.409       .  S
O1875      C1876   1.282       .  A
C1876      C2109   1.499       .  S
O1877     Zr1889   2.446       .  S
O1877      C1879   1.288       .  A
O1878     Zr1892   2.438       .  S
O1878      C1879   1.289       .  A
C1879      C2066   1.480       .  S
O1880     Zr1889   2.438   1_565  S
O1880      C1882   1.288       .  A
O1881     Zr1893   2.430       .  S
O1881      C1882   1.288       .  A
C1882      C2076   1.478       .  S
O1883     Zr1886   2.440       .  S
O1883      C1885   1.288       .  A
O1884     Zr1892   2.438       .  S
O1884      C1885   1.289       .  A
C1885      C2056   1.490       .  S
Zr1886     O1887   2.428       .  S
Zr1886     O1888   2.434       .  S
Zr1886     O1894   2.362   1_545  S
Zr1886     O1895   2.377       .  S
Zr1886     O1898   2.379       .  S
Zr1886     O1896   2.370   1_545  S
O1887      H1907   0.989   1_545  S
O1887      H1912   0.989       .  S
O1888      H1908   0.990       .  S
Zr1889     O1890   2.435       .  S
Zr1889     O1891   2.434       .  S
Zr1889     O1895   2.369       .  S
Zr1889     O1894   2.371   1_545  S
Zr1889     O1899   2.372   1_545  S
Zr1889     O1897   2.367       .  S
O1890      H1906   0.990       .  S
O1891      H1905   0.989   1_545  S
O1891      H1915   0.990       .  S
Zr1892     O1895   2.386       .  S
Zr1892     O1897   2.387       .  S
Zr1892     O1898   2.390       .  S
Zr1893     O1894   2.383       .  S
Zr1893     O1896   2.383       .  S
Zr1893     O1899   2.383       .  S
O1894      H1902   0.966       .  S
O1897      H1901   0.966       .  S
O1898      H1903   0.966       .  S
C1916      C2049   1.627       .  S
C1916      C2116   1.572       .  S
C1916      C2176   1.623       .  S
C1916      C2289   1.603       .  S
O1917     Zr1929   2.464       .  S
O1917      C1919   1.292       .  A
O1918      C1919   1.285       .  A
C1919      C2039   1.486       .  S
O1920     Zr1932   2.406   1_565  S
O1920      C1922   1.281       .  A
O1921     Zr1956   2.446       .  S
O1921      C1922   1.291       .  A
C1922      C2009   1.472       .  S
O1923     Zr1932   2.439       .  S
O1923      C1925   1.286       .  A
O1924      C1925   1.291       .  A
C1925      C2126   1.522       .  S
O1926     Zr1929   2.453   1_565  S
O1926      C1928   1.291       .  A
O1927     Zr1956   2.417       .  S
O1927      C1928   1.284       .  A
C1928      C2029   1.491       .  S
Zr1929     O1930   2.434       .  S
Zr1929     O1931   2.433       .  S
Zr1929     O1935   2.374       .  S
Zr1929     O1936   2.371   1_545  S
Zr1929     O1959   2.374   1_545  S
O1930      H1973   0.990       .  S
O1931      H1972   0.989       .  S
O1931      H1976   0.990       .  S
Zr1932     O1933   2.435       .  S
Zr1932     O1934   2.435       .  S
Zr1932     O1936   2.379   1_545  S
Zr1932     O1935   2.368       .  S
Zr1932     O1962   2.373   1_545  S
O1933      H1974   0.990   1_545  S
O1933      H1977   0.990   1_545  S
O1934      H1967   0.990       .  S
O1936     Zr1956   2.399       .  S
O1936      H1963   0.963       .  S
O1937     Zr1949   2.435   1_565  S
O1937      C1939   1.287       .  A
O1938      C1939   1.288       .  A
C1939      C2019   1.506       .  S
O1940     Zr1952   2.434       .  S
O1940      C1942   1.287       .  A
O1941     Zr1955   2.417       .  S
O1941      C1942   1.286       .  A
C1942      C1986   1.477       .  S
O1943     Zr1952   2.448   1_565  S
O1943      C1945   1.290       .  A
O1944      C1945   1.287       .  A
C1945      C2046   1.508       .  S
O1946     Zr1949   2.423       .  S
O1946      C1948   1.282       .  A
O1947     Zr1955   2.464       .  S
O1947      C1948   1.293       .  A
C1948      C1999   1.520       .  S
Zr1949     O1950   2.436       .  S
Zr1949     O1951   2.432       .  S
Zr1949     O1957   2.367   1_545  S
Zr1949     O1958   2.370       .  S
Zr1949     O1961   2.366       .  S
O1950      H1970   0.990   1_545  S
O1950      H1975   0.990   1_545  S
O1951      H1971   0.990   1_545  S
Zr1952     O1953   2.433       .  S
Zr1952     O1954   2.436       .  S
Zr1952     O1958   2.372       .  S
Zr1952     O1957   2.360   1_545  S
Zr1952     O1960   2.364       .  S
O1953      H1969   0.990       .  S
O1954      H1968   0.990   1_545  S
O1954      H1978   0.990   1_545  S
Zr1955     O1958   2.385       .  S
Zr1955     O1960   2.385       .  S
Zr1955     O1961   2.388       .  S
Zr1956     O1959   2.382       .  S
Zr1956     O1962   2.386       .  S
O1957      H1965   0.965       .  S
O1960      H1964   0.966       .  S
O1961      H1966   0.966       .  S
C1979      C2026   1.605       .  S
C1979      C2106   1.601       .  S
C1979      C2169   1.610       .  S
C1979      C2269   1.611       .  S
C1980      C1996   1.616       .  S
C1980      C2069   1.627       .  S
C1980      C2149   1.620       .  S
C1980      C2296   1.573       .  S
C1981      C2036   1.618       .  S
C1981      C2059   1.608       .  S
C1981      C2206   1.613       .  S
C1981      C2246   1.611       .  S
C1982      C2016   1.595       .  S
C1982      C2079   1.594       .  S
C1982      C2156   1.623       .  S
C1982      C2259   1.611       .  S
C1983      C1989   1.608       .  S
C1983      C2099   1.611       .  S
C1983      C2199   1.613       .  S
C1983      C2239   1.604       .  S
C1984      C2006   1.617       .  S
C1984      C2086   1.624       .  S
C1984      C2189   1.617       .  S
C1984      C2226   1.620       .  S
C1985      C1986   1.396       .  A
C1985      C1990   1.412       .  A
C1985     Br1992   1.948       .  S
C1986      C1987   1.398       .  A
C1987      C1988   1.412       .  A
C1987     Br1994   1.944       .  S
C1988      C1989   1.450       .  A
C1988     Br1993   1.933       .  S
C1989      C1990   1.463       .  A
C1990     Br1991   1.949       .  S
C1995      C1996   1.453       .  A
C1995      C2000   1.427       .  A
C1995     Br2002   1.916       .  S
C1996      C1997   1.440       .  A
C1997      C1998   1.406       .  A
C1997     Br2004   1.925       .  S
C1998      C1999   1.413       .  A
C1998     Br2003   1.944       .  S
C1999      C2000   1.410       .  A
C2000     Br2001   1.947       .  S
C2005      C2006   1.457       .  A
C2005      C2010   1.413       .  A
C2005     Br2012   1.931       .  S
C2006      C2007   1.470       .  A
C2007      C2008   1.417       .  A
C2007     Br2014   1.949       .  S
C2008      C2009   1.388       .  A
C2008     Br2013   1.948       .  S
C2009      C2010   1.391       .  A
C2010     Br2011   1.946       .  S
C2015      C2016   1.448       .  A
C2015      C2020   1.431       .  A
C2015     Br2022   1.945       .  S
C2016      C2017   1.428       .  A
C2017      C2018   1.383       .  A
C2017     Br2024   1.936       .  S
C2018      C2019   1.405       .  A
C2018     Br2023   1.930       .  S
C2019      C2020   1.422       .  A
C2020     Br2021   1.927       .  S
C2025      C2026   1.455       .  A
C2025      C2030   1.416       .  A
C2025     Br2032   1.939       .  S
C2026      C2027   1.453       .  A
C2027      C2028   1.404       .  A
C2027     Br2034   1.945       .  S
C2028      C2029   1.399       .  A
C2028     Br2033   1.937       .  S
C2029      C2030   1.401       .  A
C2030     Br2031   1.940       .  S
C2035      C2036   1.454       .  A
C2035      C2040   1.413       .  A
C2035     Br2042   1.932       .  S
C2036      C2037   1.465       .  A
C2037      C2038   1.421       .  A
C2037     Br2044   1.939       .  S
C2038      C2039   1.397       .  A
C2038     Br2043   1.950       .  S
C2039      C2040   1.395       .  A
C2040     Br2041   1.942       .  S
C2045      C2046   1.399       .  A
C2045      C2050   1.410       .  A
C2045     Br2052   1.947       .  S
C2046      C2047   1.407       .  A
C2047      C2048   1.426       .  A
C2047     Br2054   1.934       .  S
C2048      C2049   1.448       .  A
C2048     Br2053   1.936       .  S
C2049      C2050   1.468       .  A
C2050     Br2051   1.959       .  S
C2055      C2056   1.401       .  A
C2055      C2060   1.410       .  A
C2055     Br2062   1.941       .  S
C2056      C2057   1.400       .  A
C2057      C2058   1.415       .  A
C2057     Br2064   1.941       .  S
C2058      C2059   1.460       .  A
C2058     Br2063   1.949       .  S
C2059      C2060   1.452       .  A
C2060     Br2061   1.937       .  S
C2065      C2066   1.398       .  A
C2065      C2070   1.419       .  A
C2065     Br2072   1.933       .  S
C2066      C2067   1.397       .  A
C2067      C2068   1.405       .  A
C2067     Br2074   1.928       .  S
C2068      C2069   1.434       .  A
C2068     Br2073   1.928       .  S
C2069      C2070   1.467       .  A
C2070     Br2071   1.946       .  S
C2075      C2076   1.395       .  A
C2075      C2080   1.409       .  A
C2075     Br2082   1.932       .  S
C2076      C2077   1.397       .  A
C2077      C2078   1.413       .  A
C2077     Br2084   1.935       .  S
C2078      C2079   1.451       .  A
C2078     Br2083   1.940       .  S
C2079      C2080   1.448       .  A
C2080     Br2081   1.930       .  S
C2085      C2086   1.469       .  A
C2085      C2090   1.422       .  A
C2085     Br2092   1.946       .  S
C2086      C2087   1.457       .  A
C2087      C2088   1.416       .  A
C2087     Br2094   1.929       .  S
C2088      C2089   1.394       .  A
C2088     Br2093   1.945       .  S
C2089      C2090   1.391       .  A
C2090     Br2091   1.945       .  S
C2095      C2096   1.401       .  A
C2095      C2100   1.415       .  A
C2095     Br2102   1.938       .  S
C2096      C2097   1.404       .  A
C2097      C2098   1.413       .  A
C2097     Br2104   1.946       .  S
C2098      C2099   1.452       .  A
C2098     Br2103   1.932       .  S
C2099      C2100   1.458       .  A
C2100     Br2101   1.951       .  S
C2105      C2106   1.450       .  A
C2105      C2110   1.414       .  A
C2105     Br2112   1.933       .  S
C2106      C2107   1.452       .  A
C2107      C2108   1.409       .  A
C2107     Br2114   1.940       .  S
C2108      C2109   1.407       .  A
C2108     Br2113   1.940       .  S
C2109      C2110   1.404       .  A
C2110     Br2111   1.935       .  S
C2115      C2116   1.448       .  A
C2115      C2120   1.410       .  A
C2115     Br2122   1.939       .  S
C2116      C2117   1.444       .  A
C2117      C2118   1.410       .  A
C2117     Br2124   1.940       .  S
C2118      C2119   1.402       .  A
C2118     Br2123   1.933       .  S
C2119      C2120   1.401       .  A
C2120     Br2121   1.933       .  S
C2125      C2126   1.414       .  A
C2125      C2130   1.428       .  A
C2125     Br2132   1.942       .  S
C2126      C2127   1.409       .  A
C2127      C2128   1.403       .  A
C2127     Br2134   1.941       .  S
C2128      C2129   1.441       .  A
C2128     Br2133   1.923       .  S
C2129      C2130   1.447       .  A
C2130     Br2131   1.916       .  S
C2135      C2136   1.399       .  A
C2135      C2140   1.417       .  A
C2135     Br2142   1.935       .  S
C2136      C2137   1.398       .  A
C2137      C2138   1.404       .  A
C2137     Br2144   1.927       .  S
C2138      C2139   1.435       .  A
C2138     Br2143   1.933       .  S
C2139      C2140   1.462       .  A
C2140     Br2141   1.949       .  S
C2145      C2146   1.412       .  A
C2145      C2150   1.426       .  A
C2145     Br2152   1.937       .  S
C2146      C2147   1.396       .  A
C2147      C2148   1.408       .  A
C2147     Br2154   1.946       .  S
C2148      C2149   1.467       .  A
C2148     Br2153   1.958       .  S
C2149      C2150   1.444       .  A
C2150     Br2151   1.938       .  S
C2155      C2156   1.454       .  A
C2155      C2160   1.415       .  A
C2155     Br2162   1.946       .  S
C2156      C2157   1.439       .  A
C2157      C2158   1.403       .  A
C2157     Br2164   1.944       .  S
C2158      C2159   1.395       .  A
C2158     Br2163   1.932       .  S
C2159      C2160   1.397       .  A
C2160     Br2161   1.934       .  S
C2165      C2166   1.399       .  A
C2165      C2170   1.406       .  A
C2165     Br2172   1.936       .  S
C2166      C2167   1.405       .  A
C2167      C2168   1.419       .  A
C2167     Br2174   1.939       .  S
C2168      C2169   1.451       .  A
C2168     Br2173   1.933       .  S
C2169      C2170   1.455       .  A
C2170     Br2171   1.946       .  S
C2175      C2176   1.466       .  A
C2175      C2180   1.417       .  A
C2175     Br2182   1.947       .  S
C2176      C2177   1.430       .  A
C2177      C2178   1.408       .  A
C2177     Br2184   1.927       .  S
C2178      C2179   1.401       .  A
C2178     Br2183   1.924       .  S
C2179      C2180   1.400       .  A
C2180     Br2181   1.929       .  S
C2185      C2186   1.399       .  A
C2185      C2190   1.417       .  A
C2185     Br2192   1.935       .  S
C2186      C2187   1.398       .  A
C2187      C2188   1.415       .  A
C2187     Br2194   1.945       .  S
C2188      C2189   1.454       .  A
C2188     Br2193   1.927       .  S
C2189      C2190   1.463       .  A
C2190     Br2191   1.952       .  S
C2195      C2196   1.391       .  A
C2195      C2200   1.419       .  A
C2195     Br2202   1.944       .  S
C2196      C2197   1.391       .  A
C2197      C2198   1.411       .  A
C2197     Br2204   1.945       .  S
C2198      C2199   1.456       .  A
C2198     Br2203   1.932       .  S
C2199      C2200   1.466       .  A
C2200     Br2201   1.948       .  S
C2205      C2206   1.462       .  A
C2205      C2210   1.420       .  A
C2205     Br2212   1.955       .  S
C2206      C2207   1.453       .  A
C2207      C2208   1.413       .  A
C2207     Br2214   1.929       .  S
C2208      C2209   1.395       .  A
C2208     Br2213   1.946       .  S
C2209      C2210   1.397       .  A
C2210     Br2211   1.931       .  S
C2215      C2216   1.446       .  A
C2215      C2220   1.435       .  A
C2215     Br2222   1.940       .  S
C2216      C2217   1.443       .  A
C2217      C2218   1.393       .  A
C2217     Br2224   1.951       .  S
C2218      C2219   1.407       .  A
C2218     Br2223   1.938       .  S
C2219      C2220   1.425       .  A
C2220     Br2221   1.939       .  S
C2225      C2226   1.465       .  A
C2225      C2230   1.423       .  A
C2225     Br2232   1.946       .  S
C2226      C2227   1.454       .  A
C2227      C2228   1.414       .  A
C2227     Br2234   1.926       .  S
C2228      C2229   1.395       .  A
C2228     Br2233   1.946       .  S
C2229      C2230   1.395       .  A
C2230     Br2231   1.941       .  S
C2235      C2236   1.399       .  A
C2235      C2240   1.416       .  A
C2235     Br2242   1.944       .  S
C2236      C2237   1.397       .  A
C2237      C2238   1.409       .  A
C2237     Br2244   1.946       .  S
C2238      C2239   1.454       .  A
C2238     Br2243   1.937       .  S
C2239      C2240   1.461       .  A
C2240     Br2241   1.950       .  S
C2245      C2246   1.452       .  A
C2245      C2250   1.415       .  A
C2245     Br2252   1.930       .  S
C2246      C2247   1.461       .  A
C2247      C2248   1.414       .  A
C2247     Br2254   1.953       .  S
C2248      C2249   1.396       .  A
C2248     Br2253   1.940       .  S
C2249      C2250   1.400       .  A
C2250     Br2251   1.945       .  S
C2255      C2256   1.403       .  A
C2255      C2260   1.414       .  A
C2255     Br2262   1.941       .  S
C2256      C2257   1.399       .  A
C2257      C2258   1.412       .  A
C2257     Br2264   1.931       .  S
C2258      C2259   1.449       .  A
C2258     Br2263   1.946       .  S
C2259      C2260   1.443       .  A
C2260     Br2261   1.927       .  S
C2265      C2266   1.398       .  A
C2265      C2270   1.419       .  A
C2265     Br2272   1.945       .  S
C2266      C2267   1.402       .  A
C2267      C2268   1.415       .  A
C2267     Br2274   1.942       .  S
C2268      C2269   1.448       .  A
C2268     Br2273   1.935       .  S
C2269      C2270   1.462       .  A
C2270     Br2271   1.949       .  S
C2275      C2276   1.399       .  A
C2275      C2280   1.411       .  A
C2275     Br2282   1.941       .  S
C2276      C2277   1.401       .  A
C2277      C2278   1.410       .  A
C2277     Br2284   1.929       .  S
C2278      C2279   1.442       .  A
C2278     Br2283   1.939       .  S
C2279      C2280   1.454       .  A
C2280     Br2281   1.940       .  S
C2285      C2286   1.416       .  A
C2285      C2290   1.424       .  A
C2285     Br2292   1.950       .  S
C2286      C2287   1.411       .  A
C2287      C2288   1.399       .  A
C2287     Br2294   1.940       .  S
C2288      C2289   1.436       .  A
C2288     Br2293   1.926       .  S
C2289      C2290   1.447       .  A
C2290     Br2291   1.919       .  S
C2295      C2296   1.451       .  A
C2295      C2300   1.406       .  A
C2295     Br2302   1.935       .  S
C2296      C2297   1.446       .  A
C2297      C2298   1.413       .  A
C2297     Br2304   1.939       .  S
C2298      C2299   1.400       .  A
C2298     Br2303   1.931       .  S
C2299      C2300   1.395       .  A
C2300     Br2301   1.940       .  S
