geometry optimzed in LAMMPS
_audit_creation_date              2020-11-30 
_audit_creation_method            'lammps2cif' 
_symmetry_space_group_name_H-M    'P1' 
_symmetry_Int_Tables_number       1 
_symmetry_cell_setting            triclinic 
loop_ 
_symmetry_equiv_pos_as_xyz 
  x,y,z 
_cell_length_a                    60.7454285 
_cell_length_b                    60.79684217939508 
_cell_length_c                    45.332789348183184 
_cell_angle_alpha                 89.52721725029586 
_cell_angle_beta                  89.7732482942692 
_cell_angle_gamma                 122.64144652853096 
loop_ 
_atom_site_label 
_atom_site_type_symbol 
_atom_site_fract_x 
_atom_site_fract_y 
_atom_site_fract_z 
_atom_site_charge 
C1          C  0.45987268  0.30645700  0.48810799     0.87200
C2          C  0.48668484  0.33027023  0.49743869    -0.53100
C3          C  0.49233158  0.35382590  0.48665273     0.10100
C4          C  0.47131466  0.35160093  0.46576453     0.21100
C5          C  0.44001721  0.31404371  0.49590971    -0.53800
C6          C  0.44567002  0.33755863  0.48418490     0.10200
C7          C  0.46225737  0.30851699  0.45416439    -0.53300
C8          C  0.46812044  0.33183201  0.44235733     0.10800
H9          H  0.50098049  0.32914802  0.51037221     0.15300
H10         H  0.47635731  0.37058251  0.45600532     0.01000
H11         H  0.42299611  0.30176088  0.50980595     0.15600
H12         H  0.46082420  0.29324681  0.44047439     0.15400
C13         C  0.45687572  0.14178402  0.54800519     0.87200
C14         C  0.48238909  0.14465078  0.53623890    -0.53100
C15         C  0.48763072  0.12677594  0.54707627     0.10100
C16         C  0.46634405  0.10738803  0.56901774     0.21100
C17         C  0.43531360  0.11344881  0.54164480    -0.53800
C18         C  0.44005812  0.09541579  0.55238347     0.10200
C19         C  0.46066511  0.14263897  0.58182447    -0.53300
C20         C  0.46598627  0.12499042  0.59302061     0.10800
H21         H  0.49608019  0.16029338  0.52170338     0.15300
H22         H  0.46999237  0.09288677  0.57839183     0.01000
H23         H  0.41786779  0.10809123  0.52926178     0.15600
H24         H  0.46030451  0.15693840  0.59560790     0.15400
C25         C  0.70154239  0.55981069  0.55163490     0.87200
C26         C  0.67805753  0.53401295  0.53940972    -0.53100
C27         C  0.65371791  0.52707462  0.54961472     0.10100
C28         C  0.65539715  0.54775242  0.57075564     0.21100
C29         C  0.69524801  0.58050191  0.54431749    -0.53800
C30         C  0.67127455  0.57443950  0.55406610     0.10200
C31         C  0.69719627  0.55535482  0.58542007    -0.53300
C32         C  0.67320909  0.54906404  0.59561687     0.10800
H33         H  0.68071696  0.52183887  0.52439615     0.15300
H34         H  0.63637277  0.54305246  0.57945053     0.01000
H35         H  0.70867979  0.59850760  0.53240117     0.15600
H36         H  0.71104673  0.55524190  0.60016988     0.15400
C37         C  0.85733354  0.55008593  0.48019271     0.87200
C38         C  0.85866072  0.52902241  0.49789267    -0.53100
C39         C  0.87521558  0.52270270  0.48631036     0.10100
C40         C  0.89076668  0.53927783  0.45921519     0.21100
C41         C  0.88642987  0.57335277  0.48032509    -0.53800
C42         C  0.90396188  0.56771774  0.46928926     0.10200
C43         C  0.85227683  0.54026220  0.44824116    -0.53300
C44         C  0.86998076  0.53520326  0.43659420     0.10800
H45         H  0.84755367  0.51959797  0.51788559     0.15300
H46         H  0.90522443  0.53492315  0.45124892     0.01000
H47         H  0.89284185  0.59220104  0.48968777     0.15600
H48         H  0.83562065  0.53738528  0.43599276     0.15400
C49         C  0.69943868  0.15119361  0.47998728     0.87200
C50         C  0.67642787  0.15274155  0.49141185    -0.53100
C51         C  0.65269194  0.13495328  0.48004139     0.10100
C52         C  0.65364133  0.11615621  0.45824229     0.21100
C53         C  0.69007754  0.12251795  0.48784230    -0.53800
C54         C  0.66650216  0.10409562  0.47581986     0.10200
C55         C  0.69794326  0.15128672  0.44604740    -0.53300
C56         C  0.67407224  0.13361070  0.43418876     0.10800
H57         H  0.67871750  0.16674323  0.50781668     0.15300
H58         H  0.63405509  0.10162212  0.44956798     0.01000
H59         H  0.69979270  0.11644244  0.50257566     0.15600
H60         H  0.71514708  0.16414622  0.43266213     0.15400
C61         C  0.86633217  0.32055184  0.55089110     0.87200
C62         C  0.86455474  0.34220166  0.53640207    -0.53100
C63         C  0.88443994  0.36671171  0.54283390     0.10100
C64         C  0.90530839  0.36778343  0.56339098     0.21100
C65         C  0.89363339  0.32635110  0.54211040    -0.53800
C66         C  0.91423932  0.35094412  0.54875751     0.10200
C67         C  0.86982389  0.32712673  0.58429896    -0.53300
C68         C  0.89001490  0.35203874  0.59112591     0.10800
H69         H  0.84799240  0.33842538  0.52318433     0.15300
H70         H  0.92189984  0.38760070  0.56809541     0.01000
H71         H  0.89650640  0.31175090  0.53267780     0.15600
H72         H  0.85770173  0.31313234  0.60130264     0.15400
O73         O  0.54191115  0.15535614  0.90012904    -0.57100
C74         C  0.56501439  0.22018207  0.85243103     0.75500
O75         O  0.60871391  0.18616741  0.83198010    -0.58300
C76         C  0.55396236  0.14452360  0.90759368     0.75500
C77         C  0.53654912  0.14600917  0.80061042     0.77900
Cd78       Cd  0.56535252  0.17319024  0.85283245     1.37500
O79         O  0.55102632  0.20189430  0.87072745    -0.57100
O80         O  0.52809847  0.15563251  0.81860722    -0.55900
C81         C  0.62130097  0.20178433  0.85272043     0.77800
O82         O  0.55659009  0.14622354  0.80865807    -0.58300
O83         O  0.57786603  0.21598659  0.83384785    -0.56800
O84         O  0.56805978  0.14336633  0.88784219    -0.56700
O85         O  0.60796925  0.20321119  0.87317226    -0.55900
O86         O  0.62045779  0.15447756  0.12082282    -0.57100
C87         C  0.66550984  0.21633958  0.16415730     0.75500
O88         O  0.58491527  0.17644329  0.19389943    -0.58300
C89         C  0.59670719  0.13667899  0.11750864     0.75500
C90         C  0.62377330  0.14420565  0.22393857     0.77900
Cd91       Cd  0.61667545  0.16735258  0.17080181     1.37500
O92         O  0.66145378  0.19640084  0.15044889    -0.57100
O93         O  0.64173276  0.15692895  0.20497615    -0.55900
C94         C  0.58697700  0.19175975  0.17337501     0.77800
O95         O  0.60175507  0.14028625  0.21706858    -0.58300
O96         O  0.64779528  0.21289619  0.18196733    -0.56800
O97         O  0.58258950  0.13041250  0.14052581    -0.56700
O98         O  0.60148016  0.19436595  0.15187697    -0.55900
O99         O  0.63944220  0.47100525  0.90869906    -0.57100
C100        C  0.68355060  0.46514786  0.84709116     0.75500
O101        O  0.59559314  0.41405126  0.84260342    -0.58300
C102        C  0.61552052  0.46133999  0.91462479     0.75500
C103        C  0.63122315  0.48716671  0.80713239     0.77900
Cd104      Cd  0.63294602  0.45753596  0.85655904     1.37500
O105        O  0.68039459  0.47887782  0.86545535    -0.57100
O106        O  0.64491241  0.49844899  0.82963277    -0.55900
C107        C  0.60371794  0.40182393  0.85692504     0.77800
O108        O  0.61657788  0.46256224  0.80914309    -0.58300
O109        O  0.66365646  0.44918509  0.83240793    -0.56800
O110        O  0.60019625  0.45314865  0.89288113    -0.56700
O111        O  0.62492693  0.41549019  0.87062370    -0.55900
O112        O  0.54567482  0.38346143  0.12582786    -0.57100
C113        C  0.55570548  0.33771361  0.17623948     0.75500
O114        O  0.60153920  0.42617906  0.19490399    -0.58300
C115        C  0.55243194  0.40698542  0.12237462     0.75500
C116        C  0.53227050  0.38296936  0.23180709     0.77900
Cd117      Cd  0.56015371  0.38746281  0.17741865     1.37500
O118        O  0.53808329  0.34010422  0.16482378    -0.57100
O119        O  0.52045781  0.37633663  0.20734315    -0.55900
C120        C  0.61590435  0.42318122  0.17721851     0.77800
O121        O  0.55667705  0.39316266  0.23041374    -0.58300
O122        O  0.57398116  0.35764701  0.18887177    -0.56800
O123        O  0.55902647  0.42036387  0.14568768    -0.56700
O124        O  0.60442341  0.40436407  0.15953182    -0.55900
O125        O  0.86391867  0.40500641  0.90494973    -0.57100
C126        C  0.80475294  0.35679919  0.85857951     0.75500
O127        O  0.85212302  0.44670970  0.83729519    -0.58300
C128        C  0.88338764  0.42815029  0.90714042     0.75500
C129        C  0.87255917  0.40212808  0.79790040     0.77900
Cd130      Cd  0.85260148  0.40774075  0.85367344     1.37500
O131        O  0.82605481  0.36023313  0.86781569    -0.57100
O132        O  0.87641593  0.39361751  0.82165033    -0.55900
C133        C  0.83171010  0.44025187  0.85211937     0.77800
O134        O  0.86202723  0.41511505  0.80057385    -0.58300
O135        O  0.80622139  0.37639559  0.84664592    -0.56800
O136        O  0.89059946  0.44143674  0.88339235    -0.56700
O137        O  0.82204700  0.41966429  0.86767064    -0.55900
O138        O  0.85592378  0.47936652  0.11704330    -0.57100
C139        C  0.79583209  0.46307686  0.16883461     0.75500
O140        O  0.83132874  0.41536163  0.17892153    -0.58300
C141        C  0.87120324  0.47160014  0.11248886     0.75500
C142        C  0.86075603  0.48079691  0.22270027     0.77900
Cd143      Cd  0.84074525  0.45910538  0.16598764     1.37500
O144        O  0.81653309  0.48085262  0.15594460    -0.57100
O145        O  0.86249476  0.49541063  0.20154493    -0.55900
C146        C  0.81267229  0.40357767  0.16088740     0.77800
O147        O  0.85414415  0.45785801  0.21619987    -0.58300
O148        O  0.79658468  0.44449498  0.18028066    -0.56800
O149        O  0.87595018  0.46196726  0.13456937    -0.56700
O150        O  0.80783041  0.41764295  0.14498822    -0.55900
C151        C  0.15749174  0.45372076  0.54677441     0.87200
C152        C  0.12880822  0.43000468  0.54448250    -0.53100
C153        C  0.11013789  0.43445235  0.55424997     0.10100
C154        C  0.12179809  0.46257136  0.56501640     0.21100
C155        C  0.15631785  0.47489877  0.52879312    -0.53800
C156        C  0.13843243  0.48013941  0.53893375     0.10200
C157        C  0.16030584  0.46262037  0.57908449    -0.53300
C158        C  0.14163459  0.46698777  0.58913569     0.10800
H159        H  0.12352544  0.41117627  0.53494000     0.15300
H160        H  0.10641671  0.46596423  0.57208281     0.01000
H161        H  0.16752570  0.48446792  0.50915358     0.15600
H162        H  0.17628321  0.46562427  0.59265088     0.15400
C163        C  0.31474585  0.44290054  0.48333551     0.87200
C164        C  0.32112945  0.42182444  0.48885341    -0.53100
C165        C  0.34530314  0.42824814  0.47874200     0.10100
C166        C  0.36118940  0.45561552  0.46402707     0.21100
C167        C  0.33790128  0.46814238  0.49638757    -0.53800
C168        C  0.36200945  0.47468617  0.48685179     0.10200
C169        C  0.31947759  0.44893325  0.44969872    -0.53300
C170        C  0.34358395  0.45529947  0.43937404     0.10800
H171        H  0.30745466  0.40325139  0.49959890     0.15300
H172        H  0.38082819  0.46089944  0.45631639     0.01000
H173        H  0.33552759  0.48104015  0.51056554     0.15600
H174        H  0.30572976  0.44974364  0.43529504     0.15400
C175        C  0.32049018  0.85112553  0.54356781     0.87200
C176        C  0.32746774  0.87959977  0.54152072    -0.53100
C177        C  0.35136317  0.89825867  0.55302242     0.10100
C178        C  0.36540639  0.88589675  0.56708344     0.21100
C179        C  0.34463427  0.85203389  0.53036887    -0.53800
C180        C  0.36820723  0.87048135  0.54228059     0.10200
C181        C  0.32256599  0.84656347  0.57650763    -0.53300
C182        C  0.34542562  0.86484734  0.58904760     0.10800
H183        H  0.31418547  0.88429374  0.53182803     0.15300
H184        H  0.38446732  0.90009215  0.57660965     0.01000
H185        H  0.34357131  0.83826867  0.51458600     0.15600
H186        H  0.30713902  0.83012416  0.58915039     0.15400
C187        C  0.14897453  0.68540582  0.48069355     0.87200
C188        C  0.12074133  0.67774142  0.48699035    -0.53100
C189        C  0.10165720  0.65455646  0.47481808     0.10100
C190        C  0.11287598  0.64066566  0.45773893     0.21100
C191        C  0.14970146  0.66146806  0.49117382    -0.53800
C192        C  0.13069756  0.63802951  0.47968488     0.10200
C193        C  0.15066079  0.68394512  0.44684470    -0.53300
C194        C  0.13193454  0.66082976  0.43470097     0.10800
H195        H  0.11635590  0.68986720  0.49995958     0.15300
H196        H  0.09780973  0.62184817  0.44784506     0.01000
H197        H  0.16478643  0.66274356  0.50512248     0.15600
H198        H  0.16628071  0.69949868  0.43352310     0.15400
C199        C  0.56112441  0.85989841  0.46979529     0.87200
C200        C  0.55749547  0.85876728  0.43600605    -0.53100
C201        C  0.55054700  0.87501081  0.42480236     0.10100
C202        C  0.54929719  0.89251813  0.44812202     0.21100
C203        C  0.58267577  0.88933717  0.47392472    -0.53800
C204        C  0.57635805  0.90647241  0.46295272     0.10200
C205        C  0.53633271  0.85711542  0.48310776    -0.53300
C206        C  0.52988959  0.87390030  0.47199264     0.10800
H207        H  0.56064439  0.84638619  0.42182213     0.15300
H208        H  0.54393992  0.90582444  0.43854753     0.01000
H209        H  0.60184345  0.89658562  0.48282793     0.15600
H210        H  0.52512968  0.84313838  0.50065468     0.15400
C211        C  0.55514805  0.69502435  0.54724925     0.87200
C212        C  0.57755186  0.68982847  0.54389593    -0.53100
C213        C  0.57120689  0.66544673  0.55314489     0.10100
C214        C  0.54322075  0.64871200  0.56591796     0.21100
C215        C  0.53155343  0.67198368  0.53189077    -0.53800
C216        C  0.52510608  0.64796007  0.54164282     0.10200
C217        C  0.54843898  0.68950847  0.58056697    -0.53300
C218        C  0.54205518  0.66537906  0.59077976     0.10800
H219        H  0.59733981  0.70436265  0.53709223     0.15300
H220        H  0.53845646  0.62911644  0.57276275     0.01000
H221        H  0.52009580  0.67451081  0.51546309     0.15600
H222        H  0.54849203  0.70372026  0.59490845     0.15400
O223        O  0.46541898  0.61782975  0.91311628    -0.57100
C224        C  0.46333846  0.66500274  0.86106663     0.75500
O225        O  0.45174531  0.60714973  0.80712216    -0.58300
C226        C  0.46423145  0.59650792  0.91602331     0.75500
C227        C  0.39712120  0.57751411  0.86522969     0.77900
Cd228      Cd  0.45329452  0.61296298  0.86075395     1.37500
O229        O  0.48206166  0.66168210  0.86466499    -0.57100
O230        O  0.40895278  0.60169591  0.87026328    -0.55900
C231        C  0.47589192  0.61683963  0.80292782     0.77800
O232        O  0.41137956  0.56928836  0.85692932    -0.58300
O233        O  0.44090471  0.64458233  0.85808939    -0.56800
O234        O  0.46154726  0.58454329  0.89225273    -0.56700
O235        O  0.48954439  0.62185971  0.82590672    -0.55900
O236        O  0.33714906  0.52927990  0.14444918    -0.57100
C237        C  0.40121764  0.53521421  0.11999317     0.75500
O238        O  0.41225193  0.58757102  0.18620579    -0.58300
C239        C  0.32677447  0.53417958  0.16551744     0.75500
C240        C  0.37676569  0.51860329  0.22684582     0.77900
Cd241      Cd  0.37804603  0.54290072  0.17117016     1.37500
O242        O  0.37762756  0.51878679  0.12723185    -0.57100
O243        O  0.36573926  0.50464302  0.20443033    -0.55900
C244        C  0.40444962  0.59882299  0.16956617     0.77800
O245        O  0.39010382  0.54303060  0.22261886    -0.70300
O246        O  0.41483227  0.55247575  0.13883856    -0.56800
O247        O  0.33903614  0.54064574  0.18956482    -0.56700
O248        O  0.38503566  0.58412861  0.15358103    -0.55900
O249        O  0.17015538  0.62963512  0.11779085    -0.57100
C250        C  0.22611213  0.68236456  0.16811728     0.75500
O251        O  0.16848049  0.61547954  0.22072388    -0.58300
C252        C  0.15759053  0.60518187  0.11404487     0.75500
C253        C  0.21107482  0.60281561  0.16965326     0.77900
Cd254      Cd  0.18323213  0.62850442  0.16914068     1.37500
O255        O  0.20646800  0.67509481  0.15180535    -0.57100
O256        O  0.22168231  0.62614926  0.16056457    -0.55900
C257        C  0.15572080  0.62629480  0.22288301     0.77800
O258        O  0.18787822  0.59168415  0.17947275    -0.58300
O259        O  0.22522738  0.66485891  0.18430781    -0.56800
O260        O  0.15374307  0.59143219  0.13686384    -0.56700
O261        O  0.15349002  0.63624242  0.19930412    -0.55900
O262        O  0.19366368  0.51492031  0.86630048    -0.57100
C263        C  0.14852308  0.53609111  0.91344566     0.75500
O264        O  0.19086517  0.59142532  0.85123753    -0.58300
C265        C  0.21656477  0.53134587  0.85668235     0.75500
C266        C  0.15660766  0.52731353  0.80135245     0.77900
Cd267      Cd  0.17834718  0.54548214  0.85940808     1.37500
O268        O  0.16661091  0.53177581  0.91129107    -0.57100
O269        O  0.15194406  0.51116348  0.82203978    -0.55900
C270        C  0.21244471  0.60125758  0.86457164     0.77800
O271        O  0.16810115  0.55102166  0.80863255    -0.58300
O272        O  0.14173828  0.54132720  0.88936482    -0.56800
O273        O  0.22098108  0.55332612  0.84861293    -0.56700
O274        O  0.21733611  0.58528389  0.87581122    -0.55900
O275        O  0.36546935  0.80914512  0.87129593    -0.57100
C276        C  0.43446551  0.87022456  0.89760506     0.75500
O277        O  0.44048855  0.82826250  0.82236280    -0.58300
C278        C  0.35821657  0.78957108  0.85507207     0.75500
C279        C  0.39777009  0.85779723  0.79700856     0.77900
Cd280      Cd  0.40909669  0.83656399  0.84761688     1.37500
O281        O  0.41113761  0.85082804  0.89818515    -0.57100
O282        O  0.38712419  0.85557683  0.82183597    -0.55900
C283        C  0.43904499  0.81282230  0.84233287     0.77800
O284        O  0.41567724  0.85309934  0.79658340    -0.58300
O285        O  0.44576262  0.87605938  0.87259611    -0.56800
O286        O  0.37431022  0.79208627  0.83548296    -0.56700
O287        O  0.42473964  0.80932099  0.86444637    -0.55900
O288        O  0.48433608  0.80760972  0.14738244    -0.57100
C289        C  0.48146205  0.86428856  0.10315130     0.75500
O290        O  0.42900349  0.83225715  0.17843121    -0.58300
C291        C  0.46855574  0.78969902  0.16513151     0.75500
C292        C  0.50187596  0.86473432  0.21042440     0.77900
Cd293      Cd  0.47041952  0.83813391  0.15978363     1.37500
O294        O  0.48866683  0.84882582  0.10951415    -0.57100
O295        O  0.51103348  0.85940621  0.18847283    -0.55900
C296        C  0.41488673  0.81394443  0.16073764     0.77800
O297        O  0.47961565  0.86144722  0.20721369    -0.58300
O298        O  0.47252669  0.87074747  0.12433711    -0.56800
O299        O  0.45446605  0.79470089  0.18061344    -0.56700
O300        O  0.42667404  0.80808487  0.14252249    -0.55900
C301        C  0.48410693  0.89493326  0.95923886    -0.04800
C302        C  0.46743784  0.88972869  0.98362876     0.09400
C303        C  0.44234423  0.88507240  0.97894004    -0.02200
C304        C  0.43289062  0.88258260  0.95000626    -0.00400
C305        C  0.44792831  0.88331374  0.92562817    -0.04000
C306        C  0.47439863  0.89161379  0.93022037     0.03000
C307        C  0.47436809  0.88478958  0.01359983     0.09800
C308        C  0.42557331  0.88100935  0.00399832     0.35700
C309        C  0.49122354  0.89501864  0.90550471     0.39100
C310        C  0.48398127  0.90395251  0.03566448    -0.04400
C311        C  0.48723868  0.89773139  0.06482883     0.02800
C312        C  0.48120685  0.87232415  0.07199325    -0.04000
C313        C  0.47230358  0.85340771  0.04943707    -0.00200
C314        C  0.46902800  0.85968440  0.02046581    -0.02800
C315        C  0.49012615  0.92993540  0.02833498     0.36500
C316        C  0.46440102  0.82672127  0.05628214     0.40100
C317        C  0.49663348  0.91746584  0.08742613     0.39200
C318        C  0.45902039  0.83986158  0.99781565     0.36100
C319        C  0.51080114  0.90230048  0.96420639     0.36800
C320        C  0.40740953  0.87869983  0.94538986     0.40100
N321        N  0.50405135  0.93321921  0.10546563    -0.38000
N322        N  0.49507828  0.95068753  0.02239900    -0.39600
N323        N  0.45786287  0.80537572  0.06166082    -0.37300
N324        N  0.45101801  0.82409683  0.97974455    -0.39700
N325        N  0.41220266  0.87765530  0.02404059    -0.39500
N326        N  0.38717658  0.87582096  0.94168779    -0.37100
N327        N  0.50473025  0.89779900  0.88582520    -0.38200
N328        N  0.53214136  0.90832775  0.96826865    -0.39800
C329        C  0.29649658  0.72451633  0.83746893    -0.04800
C330        C  0.28847057  0.71310415  0.86582230     0.09400
C331        C  0.30137671  0.72798943  0.89093255    -0.02200
C332        C  0.32332513  0.75374160  0.88760164    -0.00400
C333        C  0.33259473  0.76454031  0.85903560    -0.04000
C334        C  0.31843338  0.75013713  0.83403620     0.03000
C335        C  0.26878882  0.68443002  0.86853890     0.09800
C336        C  0.29285035  0.71631755  0.92010089     0.35700
C337        C  0.32645401  0.76153942  0.80465523     0.39100
C338        C  0.27713635  0.66703519  0.86480720    -0.04400
C339        C  0.25873946  0.63996431  0.86359120     0.02800
C340        C  0.23164825  0.62993631  0.86637742    -0.04000
C341        C  0.22335457  0.64744200  0.87082419    -0.00200
C342        C  0.24194286  0.67463105  0.87197222    -0.02800
C343        C  0.30481519  0.67718478  0.86131649     0.36500
C344        C  0.19580306  0.63759531  0.87461390     0.40100
C345        C  0.26789346  0.62269667  0.85791166     0.39200
C346        C  0.23353234  0.69262213  0.87633773     0.36100
C347        C  0.28282035  0.70928021  0.81171287     0.36800
C348        C  0.33726065  0.76838551  0.91355602     0.40100
N349        N  0.27532962  0.60906426  0.85334018    -0.38000
N350        N  0.32686974  0.68531756  0.85844580    -0.39600
N351        N  0.17382750  0.62979565  0.87759601    -0.37300
N352        N  0.22686358  0.70700857  0.87990720    -0.39700
N353        N  0.28613117  0.70706763  0.94341803    -0.39500
N354        N  0.34840819  0.78012977  0.93421389    -0.37100
N355        N  0.33279291  0.77056235  0.78119411    -0.38200
N356        N  0.27188461  0.69694739  0.79129623    -0.39800
C357        C  0.29081737  0.74069552  0.19238427    -0.04800
C358        C  0.30164203  0.75325355  0.16509255     0.09400
C359        C  0.28559693  0.74612934  0.14007004    -0.02200
C360        C  0.25952488  0.72439278  0.14153285    -0.00400
C361        C  0.24976147  0.70948366  0.16802103    -0.04000
C362        C  0.26490170  0.71905515  0.19395183     0.03000
C363        C  0.33067682  0.76971444  0.16182363     0.09800
C364        C  0.29662814  0.75998101  0.11235590     0.35700
C365        C  0.25419686  0.70616989  0.22223529     0.39100
C366        C  0.34432454  0.75704604  0.15888540    -0.04400
C367        C  0.37175948  0.77153658  0.15937631     0.02800
C368        C  0.38591592  0.79906517  0.16161492    -0.04000
C369        C  0.37224509  0.81185947  0.16395230    -0.00200
C370        C  0.34460448  0.79714095  0.16407253    -0.02800
C371        C  0.32995180  0.72885693  0.15570632     0.36500
C372        C  0.38652883  0.84010014  0.16572627     0.40100
C373        C  0.38528967  0.75781125  0.15919265     0.39200
C374        C  0.33046039  0.81009832  0.16638106     0.36100
C375        C  0.30719771  0.74866008  0.21833986     0.36800
C376        C  0.24359779  0.71663857  0.11527611     0.40100
N377        N  0.39604553  0.74685813  0.15926561    -0.38000
N378        N  0.31838445  0.70640836  0.15309345    -0.39600
N379        N  0.39795243  0.86264005  0.16716822    -0.37300
N380        N  0.31917456  0.82046444  0.16804905    -0.39700
N381        N  0.30556608  0.77108762  0.09030061    -0.39500
N382        N  0.23098087  0.71073456  0.09424684    -0.37100
N383        N  0.24570485  0.69587096  0.24477996    -0.38200
N384        N  0.32041645  0.75491255  0.23888458    -0.39800
C385        C  0.16188574  0.59274369  0.03257449    -0.04800
C386        C  0.13855162  0.56822260  0.02869780     0.09400
C387        C  0.12024131  0.55684655  0.05207517    -0.02200
C388        C  0.12592875  0.56918245  0.07981989    -0.00400
C389        C  0.14979516  0.59335810  0.08414111    -0.04000
C390        C  0.16761406  0.60518034  0.06012636     0.03000
C391        C  0.13414540  0.55431159  0.00005069     0.09800
C392        C  0.09541044  0.53264098  0.04730503     0.35700
C393        C  0.19273728  0.62936906  0.06404466     0.39100
C394        C  0.14146873  0.53604092  0.99694276    -0.04400
C395        C  0.14316355  0.52746925  0.96863589     0.02800
C396        C  0.13819832  0.53770017  0.94302390    -0.04000
C397        C  0.12757907  0.55341298  0.94675053    -0.00200
C398        C  0.12578318  0.56176724  0.97515685    -0.02800
C399        C  0.14867215  0.52719061  0.02283316     0.36500
C400        C  0.11974884  0.56237512  0.92154116     0.40100
C401        C  0.15058731  0.50851958  0.96607475     0.39200
C402        C  0.11673836  0.57933771  0.97875981     0.36100
C403        C  0.18020643  0.60508317  0.00808843     0.36800
C404        C  0.10709626  0.55701078  0.10379711     0.40100
N405        N  0.15649476  0.49339045  0.96411057    -0.38000
N406        N  0.15441767  0.52016687  0.04351024    -0.39600
N407        N  0.11336631  0.56958534  0.90159490    -0.37300
N408        N  0.10962111  0.59341767  0.98177381    -0.39700
N409        N  0.07550536  0.51345912  0.04329243    -0.39500
N410        N  0.09205493  0.54724352  0.12292679    -0.37100
N411        N  0.21283107  0.64858123  0.06712704    -0.38200
N412        N  0.19462914  0.61493961  0.98843059    -0.39800
C413        C  0.26333323  0.58721141  0.17891927    -0.04800
C414        C  0.25114771  0.56235051  0.16586822     0.09400
C415        C  0.22584731  0.55076128  0.15421847    -0.02200
C416        C  0.21277624  0.56408741  0.15534804    -0.00400
C417        C  0.22495316  0.58900484  0.16837523    -0.04000
C418        C  0.25046280  0.60073261  0.17972676     0.03000
C419        C  0.26598392  0.54939583  0.16277189     0.09800
C420        C  0.21345888  0.52524286  0.14082080     0.35700
C421        C  0.26352975  0.62670104  0.19220170     0.39100
C422        C  0.26645277  0.53429206  0.18616423    -0.04400
C423        C  0.28480062  0.52689402  0.18580206     0.02800
C424        C  0.30278237  0.53472591  0.16203399    -0.04000
C425        C  0.30001932  0.54712399  0.13700006    -0.00200
C426        C  0.28159369  0.55440952  0.13745242    -0.02800
C427        C  0.24849591  0.52704530  0.21087350     0.36500
C428        C  0.31734755  0.55431609  0.11165295     0.40100
C429        C  0.28535001  0.51145323  0.21001156     0.39200
C430        C  0.27938185  0.56809813  0.11239709     0.36100
C431        C  0.28912735  0.59881676  0.19163779     0.36800
C432        C  0.18751227  0.55289139  0.14138754     0.40100
N433        N  0.28570770  0.49901690  0.22924613    -0.38000
N434        N  0.23400579  0.52118315  0.23044566    -0.39600
N435        N  0.33108356  0.56016902  0.09133390    -0.37300
N436        N  0.27740586  0.57888404  0.09243459    -0.39700
N437        N  0.20359846  0.50485647  0.13017987    -0.39500
N438        N  0.16749692  0.54414326  0.12999848    -0.37100
N439        N  0.27405388  0.64750425  0.20188132    -0.38200
N440        N  0.30958648  0.60800215  0.20204285    -0.39800
C441        C  0.46076825  0.72556385  0.14254178    -0.04800
C442        C  0.45218585  0.71128533  0.16926096     0.09400
C443        C  0.45215297  0.72366418  0.19534344    -0.02200
C444        C  0.45842745  0.74962661  0.19430413    -0.00400
C445        C  0.46571904  0.76374792  0.16715475    -0.04000
C446        C  0.46802895  0.75186032  0.14152730     0.03000
C447        C  0.44029525  0.68245421  0.16927154     0.09800
C448        C  0.44496226  0.70932330  0.22314674     0.35700
C449        C  0.47648109  0.76596083  0.11360879     0.39100
C450        C  0.45586280  0.67193972  0.17308787    -0.04400
C451        C  0.44433203  0.64464100  0.17255816     0.02800
C452        C  0.41696746  0.62766966  0.16904311    -0.04000
C453        C  0.40146793  0.63843434  0.16507919    -0.00200
C454        C  0.41317243  0.66569403  0.16495682    -0.02800
C455        C  0.48375607  0.68929008  0.17751129     0.36500
C456        C  0.37332708  0.62162623  0.16176600     0.40100
C457        C  0.46086335  0.63419819  0.17427060     0.39200
C458        C  0.39728593  0.67663297  0.16033538     0.36100
C459        C  0.46087532  0.71266791  0.11578980     0.36800
C460        C  0.45697783  0.76149375  0.22128129     0.40100
N461        N  0.47402911  0.62583185  0.17540160    -0.38000
N462        N  0.50600562  0.70314129  0.18113688    -0.39600
N463        N  0.35091166  0.60826618  0.15901002    -0.37300
N464        N  0.38467256  0.68538965  0.15656880    -0.39700
N465        N  0.43938818  0.69789978  0.24531869    -0.39500
N466        N  0.45559697  0.77075532  0.24285294    -0.37100
N467        N  0.48337447  0.77706328  0.09124645    -0.38200
N468        N  0.46076557  0.70222140  0.09451384    -0.39800
C469        C  0.47478581  0.78050582  0.86548923    -0.04800
C470        C  0.46631789  0.76112530  0.84383369     0.09400
C471        C  0.45312359  0.76201487  0.81872989    -0.02200
C472        C  0.44607985  0.78063656  0.81681703    -0.00400
C473        C  0.45229740  0.79838488  0.84003979    -0.04000
C474        C  0.46781233  0.79912168  0.86360035     0.03000
C475        C  0.46737861  0.73752309  0.84996266     0.09800
C476        C  0.44543044  0.74274721  0.79580441     0.35700
C477        C  0.47594955  0.81858526  0.88637984     0.39100
C478        C  0.44795099  0.71748524  0.86823385    -0.04400
C479        C  0.44763228  0.69445271  0.87319308     0.02800
C480        C  0.46676945  0.69115837  0.85987993    -0.04000
C481        C  0.48731315  0.71204459  0.84320698    -0.00200
C482        C  0.48741604  0.73508125  0.83803539    -0.02800
C483        C  0.42806564  0.72053705  0.88180592     0.36500
C484        C  0.50789840  0.70967271  0.83058855     0.40100
C485        C  0.42770067  0.67430204  0.89249933     0.39200
C486        C  0.50787178  0.75618729  0.82016945     0.36100
C487        C  0.48929265  0.78017430  0.89063274     0.36800
C488        C  0.43054816  0.78004367  0.79223475     0.40100
N489        N  0.41177980  0.65834252  0.90794972    -0.38000
N490        N  0.41233464  0.72308011  0.89273280    -0.39600
N491        N  0.52450077  0.70798028  0.82065328    -0.37300
N492        N  0.52413227  0.77309567  0.80590315    -0.39700
N493        N  0.43936547  0.72740710  0.77748805    -0.39500
N494        N  0.41808706  0.77952535  0.77268104    -0.37100
N495        N  0.48251490  0.83412690  0.90454802    -0.38200
N496        N  0.50076280  0.77969027  0.91067982    -0.39800
C497        C  0.46192596  0.58946755  0.99971937    -0.04800
C498        C  0.44748501  0.56205351  0.00327398     0.09400
C499        C  0.44305251  0.54629428  0.97856535    -0.02200
C500        C  0.45084136  0.55766802  0.95004754    -0.00400
C501        C  0.46319878  0.58512345  0.94598422    -0.04000
C502        C  0.47036824  0.60098303  0.97140889     0.03000
C503        C  0.43467160  0.55001761  0.03249150     0.09800
C504        C  0.42899555  0.51813762  0.98234589     0.35700
C505        C  0.48612590  0.62925252  0.96872810     0.39100
C506        C  0.40772355  0.53968847  0.03638537    -0.04400
C507        C  0.39625580  0.53265289  0.06481012     0.02800
C508        C  0.41178054  0.53625091  0.08983775    -0.04000
C509        C  0.43846400  0.54513284  0.08558984    -0.00200
C510        C  0.44973494  0.55165124  0.05698605    -0.02800
C511        C  0.39210389  0.53796406  0.01127785     0.36500
C512        C  0.45465509  0.54849231  0.11072832     0.40100
C513        C  0.36897748  0.52411672  0.06827661     0.39200
C514        C  0.47716228  0.56114426  0.05282123     0.36100
C515        C  0.46654881  0.60581704  0.02507962     0.36800
C516        C  0.44470687  0.54064167  0.92501897     0.40100
N517        N  0.34726526  0.51746280  0.07089817    -0.38000
N518        N  0.37972270  0.53663239  0.99122500    -0.39600
N519        N  0.46765053  0.55139496  0.13079064    -0.37300
N520        N  0.49906589  0.56879901  0.04947345    -0.39700
N521        N  0.41757639  0.49566710  0.98529092    -0.39500
N522        N  0.43975636  0.52693465  0.90515611    -0.37100
N523        N  0.49876645  0.65181446  0.96685662    -0.38200
N524        N  0.47002627  0.61869880  0.04537550    -0.39800
C525        C  0.32546158  0.52658819  0.84868349    -0.04800
C526        C  0.31298894  0.53611277  0.86586387     0.09400
C527        C  0.32767060  0.55590423  0.88656777    -0.02200
C528        C  0.35487531  0.56737923  0.88849860    -0.00400
C529        C  0.36801034  0.56044649  0.86837110    -0.04000
C530        C  0.35292365  0.53878453  0.84975390     0.03000
C531        C  0.28544035  0.52822181  0.85970036     0.09800
C532        C  0.31504426  0.56569715  0.90464148     0.35700
C533        C  0.36550821  0.52959600  0.83077325     0.39100
C534        C  0.26527174  0.51371299  0.88067208    -0.04400
C535        C  0.24162365  0.51293248  0.87881540     0.02800
C536        C  0.23789689  0.52616880  0.85545924    -0.04000
C537        C  0.25668548  0.53743158  0.83234630    -0.00200
C538        C  0.28045962  0.53872722  0.83464140    -0.02800
C539        C  0.26928998  0.50035682  0.90464063     0.36500
C540        C  0.25182367  0.54811213  0.80624483     0.40100
C541        C  0.22208012  0.50008379  0.90202202     0.39200
C542        C  0.30033110  0.55196431  0.81177664     0.36100
C543        C  0.31010540  0.50512619  0.82875628     0.36800
C544        C  0.36918708  0.58604134  0.91165535     0.40100
N545        N  0.20647337  0.48986057  0.92054618    -0.38000
N546        N  0.27236615  0.48950138  0.92366523    -0.39600
N547        N  0.24807312  0.55661058  0.78532843    -0.37300
N548        N  0.31614221  0.56231183  0.79348181    -0.39700
N549        N  0.30496300  0.57356758  0.91889586    -0.39500
N550        N  0.38043445  0.60061993  0.93041535    -0.37100
N551        N  0.37549977  0.52212464  0.81572299    -0.38200
N552        N  0.29782242  0.48808853  0.81275150    -0.39800
C553        C  0.49141306  0.64474155  0.72454941    -0.04800
C554        C  0.50931866  0.63837370  0.71473528     0.09400
C555        C  0.51719541  0.62570983  0.73426067    -0.02200
C556        C  0.50647940  0.61859632  0.76316082    -0.00400
C557        C  0.48757462  0.62390545  0.77259250    -0.04000
C558        C  0.48050309  0.63748282  0.75320436     0.03000
C559        C  0.51920152  0.64444315  0.68342290     0.09800
C560        C  0.53661623  0.62036206  0.72457999     0.35700
C561        C  0.46289093  0.64519956  0.76315527     0.39100
C562        C  0.54152258  0.66883763  0.67573338    -0.04400
C563        C  0.54941337  0.67527452  0.64584288     0.02800
C564        C  0.53513638  0.65711703  0.62300471    -0.04000
C565        C  0.51448993  0.63146244  0.63165723    -0.00200
C566        C  0.50590564  0.62573549  0.66139151    -0.02800
C567        C  0.55651534  0.68722942  0.69883041     0.36500
C568        C  0.50254884  0.61003507  0.61115588     0.40100
C569        C  0.57353513  0.69992765  0.63914118     0.39200
C570        C  0.48303078  0.60044703  0.66945680     0.36100
C571        C  0.48465553  0.65933670  0.70523766     0.36800
C572        C  0.51465532  0.60548615  0.78288893     0.40100
N573        N  0.59279460  0.71960223  0.63389116    -0.38000
N574        N  0.56850562  0.70173224  0.71737745    -0.39600
N575        N  0.49291867  0.59194760  0.59607859    -0.37300
N576        N  0.46470751  0.58037837  0.67589627    -0.39700
N577        N  0.55225415  0.61632367  0.71673936    -0.39500
N578        N  0.52134905  0.59510522  0.79855191    -0.37100
N579        N  0.44893674  0.65141491  0.77120044    -0.38200
N580        N  0.47948179  0.67120017  0.68992051    -0.39800
C581        C  0.52967909  0.85704372  0.28166712    -0.04800
C582        C  0.53160571  0.87718585  0.29896841     0.09400
C583        C  0.52642940  0.89517246  0.28602886    -0.02200
C584        C  0.51768540  0.89195409  0.25657229    -0.00400
C585        C  0.51499536  0.87128723  0.23955667    -0.04000
C586        C  0.52187856  0.85437600  0.25199466     0.03000
C587        C  0.53703715  0.87801581  0.33136825     0.09800
C588        C  0.52963921  0.91667289  0.30330444     0.35700
C589        C  0.51931841  0.83302748  0.23489892     0.39100
C590        C  0.56204640  0.88530728  0.34137698    -0.04400
C591        C  0.56629366  0.88365884  0.37173002     0.02800
C592        C  0.54594118  0.87626614  0.39258287    -0.04000
C593        C  0.52124774  0.87009243  0.38252967    -0.00200
C594        C  0.51660628  0.87010608  0.35205781    -0.02800
C595        C  0.58349073  0.89491906  0.32039497     0.36500
C596        C  0.50021413  0.86331578  0.40317963     0.40100
C597        C  0.59216560  0.89140603  0.38168155     0.39200
C598        C  0.49048048  0.86118931  0.34185469     0.36100
C599        C  0.53440670  0.83814975  0.29487883     0.36800
C600        C  0.51145303  0.90987327  0.24379168     0.40100
N601        N  0.61285020  0.89783519  0.38968472    -0.38000
N602        N  0.60057600  0.90269360  0.30359425    -0.39600
N603        N  0.48282274  0.85806686  0.41865627    -0.37300
N604        N  0.46963890  0.85394980  0.33367625    -0.39700
N605        N  0.53222885  0.93380106  0.31717575    -0.39500
N606        N  0.50648899  0.92419028  0.23360149    -0.37100
N607        N  0.51735378  0.81607922  0.22121372    -0.38200
N608        N  0.53812684  0.82305487  0.30542379    -0.39800
C609        C  0.58283275  0.81936626  0.51647814    -0.04800
C610        C  0.56637758  0.79406294  0.50529481     0.09400
C611        C  0.54850311  0.79014951  0.48317198    -0.02200
C612        C  0.54698268  0.81115605  0.47217833    -0.00400
C613        C  0.56430045  0.83742990  0.48218921    -0.04000
C614        C  0.58140352  0.84069409  0.50582249     0.03000
C615        C  0.56588756  0.77071427  0.51823088     0.09800
C616        C  0.53094594  0.76390765  0.47215565     0.35700
C617        C  0.59579469  0.86479066  0.52197548     0.39100
C618        C  0.54564878  0.75360500  0.53780029    -0.04400
C619        C  0.54166323  0.72908571  0.54566329     0.02800
C620        C  0.55947797  0.72183531  0.53641505    -0.04000
C621        C  0.57907499  0.73893005  0.51531371    -0.00200
C622        C  0.58273258  0.76340019  0.50734516    -0.02800
C623        C  0.52830017  0.76112083  0.54929746     0.36500
C624        C  0.59309571  0.73054994  0.49780638     0.40100
C625        C  0.51754751  0.71065348  0.56112575     0.39200
C626        C  0.60341584  0.78086854  0.48680340     0.36100
C627        C  0.60068828  0.82318347  0.53998095     0.36800
C628        C  0.52647839  0.80475495  0.45109644     0.40100
N629        N  0.49800530  0.69637353  0.57319510    -0.38000
N630        N  0.51462096  0.76728360  0.55846436    -0.39600
N631        N  0.60465882  0.72498832  0.48263284    -0.37300
N632        N  0.61999471  0.79486203  0.47056666    -0.39700
N633        N  0.51692886  0.74294198  0.46362304    -0.39500
N634        N  0.51034698  0.79931001  0.43387073    -0.37100
N635        N  0.60762582  0.88344799  0.53592499    -0.38200
N636        N  0.61493018  0.82619594  0.55869818    -0.39800
C637        C  0.15612203  0.65191092  0.36035568    -0.04800
C638        C  0.13354584  0.64160239  0.34290176     0.09400
C639        C  0.11039220  0.63772138  0.35539457    -0.02200
C640        C  0.10980145  0.64419604  0.38519171    -0.00400
C641        C  0.13250199  0.65478682  0.40274532    -0.04000
C642        C  0.15566397  0.65840949  0.39006343     0.03000
C643        C  0.13491004  0.63611948  0.31092889     0.09800
C644        C  0.08724135  0.62727599  0.33737952     0.35700
C645        C  0.17852364  0.66685037  0.40811142     0.39100
C646        C  0.12911598  0.61136675  0.30201302    -0.04400
C647        C  0.13474163  0.60768540  0.27281538     0.02800
C648        C  0.14567398  0.62863608  0.25208342    -0.04000
C649        C  0.14984242  0.65294980  0.26070490    -0.00200
C650        C  0.14452098  0.65661501  0.28997760    -0.02800
C651        C  0.11780596  0.58983025  0.32309077     0.36500
C652        C  0.16153341  0.67494961  0.24022947     0.40100
C653        C  0.12958176  0.58238267  0.26427950     0.39200
C654        C  0.14988986  0.68187872  0.29901871     0.36100
C655        C  0.17987177  0.65555751  0.34770106     0.36800
C656        C  0.08582485  0.64022497  0.39741315     0.40100
N657        N  0.12558967  0.56224012  0.25748488    -0.38000
N658        N  0.10858705  0.57255545  0.33980107    -0.39600
N659        N  0.17096553  0.69256588  0.22398377    -0.37300
N660        N  0.15414736  0.70197559  0.30642191    -0.39700
N661        N  0.06878920  0.61896326  0.32296031    -0.39500
N662        N  0.06641270  0.63675564  0.40669219    -0.37100
N663        N  0.19666046  0.67346939  0.42260989    -0.38200
N664        N  0.19879603  0.65845290  0.33758243    -0.39800
C665        C  0.48622113  0.89829091  0.49784097    -0.04800
C666        C  0.46179810  0.87479080  0.50105836     0.09400
C667        C  0.45942777  0.85094963  0.49502677    -0.02200
C668        C  0.48146741  0.85052415  0.48583677    -0.00400
C669        C  0.50635471  0.87419347  0.48239401    -0.04000
C670        C  0.50830278  0.89811105  0.48844184     0.03000
C671        C  0.43861607  0.87516643  0.51164759     0.09800
C672        C  0.43405099  0.82679255  0.49814630     0.35700
C673        C  0.53275090  0.92301836  0.48555276     0.39100
C674        C  0.42226902  0.87720618  0.49142696    -0.04400
C675        C  0.40000422  0.87679485  0.50152950     0.02800
C676        C  0.39387347  0.87444995  0.53212136    -0.04000
C677        C  0.41229746  0.87555476  0.55235745    -0.00200
C678        C  0.43391617  0.87490451  0.54207460    -0.02800
C679        C  0.42886874  0.88043111  0.46022522     0.36500
C680        C  0.41075780  0.87920501  0.58360348     0.40100
C681        C  0.38489197  0.88121740  0.48043749     0.39200
C682        C  0.45170839  0.87425898  0.56285676     0.36100
C683        C  0.48861297  0.92283223  0.50449818     0.36800
C684        C  0.47775048  0.82559453  0.47843703     0.40100
N685        N  0.37357676  0.88541733  0.46320971    -0.38000
N686        N  0.43437824  0.88326006  0.43540407    -0.39600
N687        N  0.41137172  0.88345074  0.60852160    -0.37300
N688        N  0.46592787  0.87370919  0.57930842    -0.39700
N689        N  0.41373973  0.80761889  0.50064058    -0.39500
N690        N  0.47414484  0.80539404  0.47275495    -0.37100
N691        N  0.55127595  0.94377255  0.48326137    -0.38200
N692        N  0.49060637  0.94240480  0.50985992    -0.39800
C693        C  0.39782585  0.88043009  0.71846867    -0.04800
C694        C  0.37085248  0.86602514  0.71237976     0.09400
C695        C  0.35265721  0.85205982  0.73531444    -0.02200
C696        C  0.36144745  0.85103279  0.76379040    -0.00400
C697        C  0.38860969  0.86362199  0.76930245    -0.04000
C698        C  0.40671496  0.87902826  0.74669089     0.03000
C699        C  0.36190168  0.86406179  0.68125168     0.09800
C700        C  0.32487488  0.83789630  0.72923591     0.35700
C701        C  0.43456551  0.89330673  0.75230581     0.39100
C702        C  0.36337697  0.84694389  0.66164163    -0.04400
C703        C  0.35704535  0.84648743  0.63167880     0.02800
C704        C  0.34991870  0.86365663  0.62105991    -0.04000
C705        C  0.34562419  0.87854830  0.64124365    -0.00200
C706        C  0.35242787  0.87943135  0.67113131    -0.02800
C707        C  0.37185082  0.83012618  0.67226680     0.36500
C708        C  0.33342239  0.89224959  0.63142855     0.40100
C709        C  0.35803806  0.82851048  0.61168852     0.39200
C710        C  0.35027371  0.89654934  0.69133231     0.36100
C711        C  0.41642912  0.89630783  0.69534870     0.36800
C712        C  0.34236816  0.83556967  0.78672772     0.40100
N713        N  0.35882027  0.81423247  0.59564507    -0.38000
N714        N  0.37868483  0.81678129  0.68078769    -0.39600
N715        N  0.32357221  0.90307335  0.62360473    -0.37300
N716        N  0.34867206  0.91026823  0.70749623    -0.39700
N717        N  0.30272243  0.82664928  0.72435895    -0.39500
N718        N  0.32711257  0.82326040  0.80499291    -0.37100
N719        N  0.45679365  0.90464445  0.75674564    -0.38200
N720        N  0.43116066  0.90901983  0.67684484    -0.39800
C721        C  0.24517201  0.80142644  0.54059556    -0.04800
C722        C  0.24261285  0.78586753  0.51632164     0.09400
C723        C  0.26437632  0.79468004  0.49739623    -0.02200
C724        C  0.28882143  0.81757377  0.50391413    -0.00400
C725        C  0.29278264  0.83061654  0.53121262    -0.04000
C726        C  0.26982192  0.82382855  0.54769236     0.03000
C727        C  0.21669428  0.76105968  0.50963743     0.09800
C728        C  0.26150989  0.78035959  0.47070026     0.35700
C729        C  0.27115327  0.84025972  0.57155645     0.39100
C730        C  0.20138938  0.76019119  0.48582106    -0.04400
C731        C  0.17829210  0.73637752  0.47797194     0.02800
C732        C  0.17038336  0.71261298  0.49341830    -0.04000
C733        C  0.18307821  0.71511997  0.52068953    -0.00200
C734        C  0.20683525  0.73860286  0.52772083    -0.02800
C735        C  0.20944931  0.78402356  0.46941354     0.36500
C736        C  0.17031517  0.69525697  0.54353265     0.40100
C737        C  0.16247838  0.73698912  0.45451683     0.39200
C738        C  0.22114501  0.73966197  0.55379335     0.36100
C739        C  0.22223179  0.79444621  0.55816356     0.36800
C740        C  0.30798513  0.82927125  0.48030692     0.40100
N741        N  0.15038294  0.73798532  0.43550222    -0.38000
N742        N  0.21594942  0.80306678  0.45637832    -0.39600
N743        N  0.16039883  0.68003373  0.56247337    -0.37300
N744        N  0.23255504  0.74056197  0.57461476    -0.39700
N745        N  0.25921723  0.76908981  0.44929653    -0.39500
N746        N  0.32241391  0.83802025  0.46053365    -0.37100
N747        N  0.27212472  0.85333954  0.59056405    -0.38200
N748        N  0.20387953  0.78878963  0.57212904    -0.39800
C749        C  0.42950815  0.52589036  0.51643975    -0.04800
C750        C  0.43104879  0.54935546  0.50925139     0.09400
C751        C  0.41015165  0.54825434  0.49430028    -0.02200
C752        C  0.38786572  0.52393196  0.48670029    -0.00400
C753        C  0.38602519  0.50034872  0.49443256    -0.04000
C754        C  0.40702771  0.50148464  0.50922946     0.03000
C755        C  0.45497034  0.57529318  0.51681213     0.09800
C756        C  0.41183375  0.57225902  0.48620367     0.35700
C757        C  0.40545816  0.47762526  0.51759187     0.39100
C758        C  0.47843308  0.58498620  0.50068083    -0.04400
C759        C  0.50118364  0.60896996  0.50831559     0.02800
C760        C  0.50071091  0.62350211  0.53214902    -0.04000
C761        C  0.47677717  0.61460028  0.54706580    -0.00200
C762        C  0.45415530  0.59034910  0.53983677    -0.02800
C763        C  0.47911554  0.57020538  0.47611558     0.36500
C764        C  0.47545486  0.62987769  0.57059308     0.40100
C765        C  0.52476008  0.61884839  0.49089861     0.39200
C766        C  0.43012415  0.58059949  0.55652036     0.36100
C767        C  0.45120496  0.52693359  0.53118220     0.36800
C768        C  0.36761857  0.52327326  0.46908037     0.40100
N769        N  0.54298348  0.62607760  0.47605438    -0.38000
N770        N  0.47966970  0.55834350  0.45661506    -0.39600
N771        N  0.47405279  0.64143731  0.58986636    -0.37300
N772        N  0.41095044  0.57285325  0.56980895    -0.39700
N773        N  0.41313955  0.59141808  0.47990572    -0.39500
N774        N  0.35158938  0.52268447  0.45474717    -0.37100
N775        N  0.40465447  0.45885500  0.52455527    -0.38200
N776        N  0.46867756  0.52788506  0.54266395    -0.39800
C777        C  0.34010538  0.45328968  0.35489912    -0.04800
C778        C  0.36227098  0.47770728  0.34683638     0.09400
C779        C  0.38044696  0.49320691  0.36859652    -0.02200
C780        C  0.37548983  0.48537388  0.39863264    -0.00400
C781        C  0.35164166  0.46221775  0.40734510    -0.04000
C782        C  0.33492512  0.44547031  0.38488466     0.03000
C783        C  0.36591301  0.48771408  0.31566092     0.09800
C784        C  0.40441106  0.51732402  0.35987600     0.35700
C785        C  0.31415624  0.41890693  0.39218918     0.39100
C786        C  0.35753643  0.50457556  0.30795662    -0.04400
C787        C  0.36125198  0.51462581  0.27895993     0.02800
C788        C  0.37285560  0.50742606  0.25713058    -0.04000
C789        C  0.38089987  0.49024311  0.26468152    -0.00200
C790        C  0.37783739  0.48076227  0.29401826    -0.02800
C791        C  0.34504302  0.51158017  0.33000731     0.36500
C792        C  0.39304025  0.48299427  0.24251331     0.40100
C793        C  0.35263297  0.53207084  0.27145493     0.39200
C794        C  0.38747860  0.46436333  0.30218518     0.36100
C795        C  0.32279526  0.43606884  0.33216661     0.36800
C796        C  0.39577378  0.50102752  0.41965126     0.40100
N797        N  0.34583152  0.54602551  0.26545579    -0.38000
N798        N  0.33506195  0.51711197  0.34762713    -0.39600
N799        N  0.40272263  0.47721246  0.22478521    -0.37300
N800        N  0.39532826  0.45141580  0.30880274    -0.39700
N801        N  0.42354722  0.53648865  0.35287806    -0.39500
N802        N  0.41327697  0.51394386  0.43488981    -0.37100
N803        N  0.29838033  0.39729026  0.39750423    -0.38200
N804        N  0.30915193  0.42228440  0.31394569    -0.39800
C805        C  0.13415170  0.57693693  0.47407553    -0.04800
C806        C  0.13226321  0.56947211  0.50398050     0.09400
C807        C  0.12740320  0.58302856  0.52552194    -0.02200
C808        C  0.12603565  0.60478796  0.51740303    -0.00400
C809        C  0.12887079  0.61293833  0.48748968    -0.04000
C810        C  0.13119865  0.59766510  0.46575697     0.03000
C811        C  0.13411271  0.54650086  0.51247155     0.09800
C812        C  0.12333399  0.57426369  0.55604476     0.35700
C813        C  0.12899808  0.60163688  0.43471706     0.39100
C814        C  0.15635619  0.55030921  0.52717528    -0.04400
C815        C  0.15805757  0.52869067  0.53492546     0.02800
C816        C  0.13749875  0.50296609  0.52806823    -0.04000
C817        C  0.11547242  0.49924526  0.51296407    -0.00200
C818        C  0.11365042  0.52083893  0.50551314    -0.02800
C819        C  0.17718582  0.57646943  0.53514759     0.36500
C820        C  0.09484197  0.47333128  0.50428695     0.40100
C821        C  0.18015806  0.53284415  0.55191041     0.39200
C822        C  0.09039726  0.51663324  0.49113397     0.36100
C823        C  0.13935441  0.56330015  0.45170922     0.36800
C824        C  0.11930620  0.61730916  0.53957516     0.40100
N825        N  0.19764705  0.53620825  0.56578623    -0.38000
N826        N  0.19367233  0.59730383  0.54182424    -0.39600
N827        N  0.07811220  0.45302380  0.49655781    -0.37300
N828        N  0.07189463  0.51336912  0.47965180    -0.39700
N829        N  0.12005789  0.56728531  0.58040931    -0.39500
N830        N  0.11321525  0.62671425  0.55724105    -0.37100
N831        N  0.12622345  0.60256119  0.40961920    -0.38200
N832        N  0.14355328  0.55250200  0.43384928    -0.39800
C833        C  0.13623725  0.50288834  0.65630790    -0.04800
C834        C  0.14198591  0.49161136  0.67983557     0.09400
C835        C  0.14627439  0.47149783  0.67406075    -0.02200
C836        C  0.14547286  0.46307545  0.64484886    -0.00400
C837        C  0.14093918  0.47515411  0.62058612    -0.04000
C838        C  0.13544636  0.49466571  0.62697852     0.03000
C839        C  0.14457759  0.50162468  0.71068289     0.09800
C840        C  0.15170380  0.45956096  0.69846041     0.35700
C841        C  0.12843485  0.50646891  0.60412345     0.39100
C842        C  0.12416241  0.48793453  0.73163621    -0.04400
C843        C  0.12765244  0.49642502  0.76122985     0.02800
C844        C  0.15120951  0.51935104  0.76977832    -0.04000
C845        C  0.17098749  0.53385239  0.74818579    -0.00200
C846        C  0.16796208  0.52459123  0.71911540    -0.02800
C847        C  0.09963948  0.46500599  0.72266804     0.36500
C848        C  0.19502204  0.55795984  0.75594979     0.40100
C849        C  0.10680719  0.48182836  0.78269595     0.39200
C850        C  0.18942876  0.53813865  0.69808974     0.36100
C851        C  0.13120408  0.52321798  0.66241297     0.36800
C852        C  0.14771103  0.44076397  0.64043050     0.40100
N853        N  0.09015636  0.47017028  0.79982302    -0.38000
N854        N  0.08006398  0.44676724  0.71538512    -0.39600
N855        N  0.21402929  0.57734210  0.76209620    -0.37300
N856        N  0.20665115  0.54880035  0.68143074    -0.39700
N857        N  0.15598318  0.45017709  0.71810068    -0.39500
N858        N  0.14948778  0.42289568  0.63746672    -0.37100
N859        N  0.12181117  0.51602800  0.58716726    -0.38200
N860        N  0.12724277  0.53945845  0.66720342    -0.39800
C861        C  0.19722141  0.41975746  0.53957299    -0.04800
C862        C  0.22002663  0.43857092  0.52417071     0.09400
C863        C  0.22320543  0.46265557  0.51693390    -0.02200
C864        C  0.20400286  0.46811960  0.52490433    -0.00400
C865        C  0.17958247  0.44852299  0.53828991    -0.04000
C866        C  0.17759843  0.42481823  0.54728559     0.03000
C867        C  0.24154806  0.43396010  0.51628057     0.09800
C868        C  0.24689885  0.48223129  0.50141886     0.35700
C869        C  0.15620515  0.40584955  0.56606883     0.39100
C870        C  0.24204257  0.42399438  0.48852387    -0.04400
C871        C  0.26439994  0.42410535  0.47890445     0.02800
C872        C  0.28750988  0.43577679  0.49620552    -0.04000
C873        C  0.28468897  0.44100630  0.52621634    -0.00200
C874        C  0.26242337  0.44114013  0.53567984    -0.02800
C875        C  0.21934797  0.41362995  0.46975571     0.36500
C876        C  0.30406253  0.44535021  0.54796467     0.40100
C877        C  0.26212206  0.40979098  0.45259921     0.39200
C878        C  0.26117812  0.44917086  0.56534840     0.36100
C879        C  0.19397877  0.39501355  0.54757013     0.36800
C880        C  0.21148004  0.49499493  0.52146377     0.40100
N881        N  0.25919473  0.39776030  0.43170438    -0.38000
N882        N  0.20115892  0.40529196  0.45489468    -0.39600
N883        N  0.31948911  0.44896905  0.56543001    -0.37300
N884        N  0.26021549  0.45559285  0.58902962    -0.39700
N885        N  0.26578853  0.49761545  0.48895258    -0.39500
N886        N  0.21837477  0.51669676  0.51809481    -0.37100
N887        N  0.13918833  0.39048472  0.58097416    -0.38200
N888        N  0.19130350  0.37521180  0.55383919    -0.39800
C889        C  0.89374324  0.43068591  0.98986902    -0.04800
C890        C  0.90055208  0.45633285  0.99572109     0.09400
C891        C  0.90839534  0.47445015  0.97223293    -0.02200
C892        C  0.90590757  0.46606996  0.94272876    -0.00400
C893        C  0.89510014  0.43925651  0.93665414    -0.04000
C894        C  0.89131988  0.42223124  0.96046758     0.03000
C895        C  0.89453226  0.46262812  0.02542119     0.09800
C896        C  0.91748102  0.50139460  0.97855475     0.35700
C897        C  0.88437978  0.39578330  0.95485759     0.39100
C898        C  0.91276535  0.47179158  0.04854542    -0.04400
C899        C  0.90577584  0.47595054  0.07685973     0.02800
C900        C  0.88047509  0.47101188  0.08212521    -0.04000
C901        C  0.86250249  0.46237573  0.05852787    -0.00200
C902        C  0.86955745  0.45827148  0.03046187    -0.02800
C903        C  0.93850663  0.47649208  0.04321201     0.36500
C904        C  0.83595237  0.45585609  0.06333471     0.40100
C905        C  0.92468550  0.48547786  0.10044389     0.39200
C906        C  0.85059817  0.44845777  0.00686051     0.36100
C907        C  0.88765633  0.41255649  0.01418537     0.36800
C908        C  0.91315586  0.48494892  0.91897843     0.40100
N909        N  0.93981417  0.49313261  0.11925142    -0.38000
N910        N  0.95903744  0.48020157  0.03885407    -0.39600
N911        N  0.81474244  0.45051142  0.06706265    -0.37300
N912        N  0.83540469  0.44045904  0.98813923    -0.39700
N913        N  0.92474687  0.52287125  0.98374618    -0.39500
N914        N  0.91918812  0.50023680  0.90020305    -0.37100
N915        N  0.87892291  0.37470947  0.95036872    -0.38200
N916        N  0.88282670  0.39812120  0.03361152    -0.39800
C917        C  0.72380417  0.43908206  0.16729875    -0.04800
C918        C  0.72431603  0.46194053  0.17410158     0.09400
C919        C  0.74843195  0.48562249  0.17819246    -0.02200
C920        C  0.77202662  0.48630144  0.17610931    -0.00400
C921        C  0.77145036  0.46316944  0.17007642    -0.04000
C922        C  0.74712767  0.43951679  0.16580766     0.03000
C923        C  0.69896269  0.46029904  0.17656933     0.09800
C924        C  0.74886181  0.50922055  0.18423518     0.35700
C925        C  0.74587290  0.41546235  0.15948485     0.39100
C926        C  0.68530012  0.45306086  0.20373994    -0.04400
C927        C  0.65817051  0.44257916  0.20438071     0.02800
C928        C  0.64482782  0.43977703  0.17781166    -0.04000
C929        C  0.65921344  0.44999012  0.15119336    -0.00200
C930        C  0.68630149  0.46040459  0.15066718    -0.02800
C931        C  0.69895962  0.45515749  0.23077007     0.36500
C932        C  0.64604918  0.44904707  0.12416256     0.40100
C933        C  0.64368810  0.43241838  0.23191498     0.39200
C934        C  0.70105496  0.46996271  0.12324932     0.36100
C935        C  0.69916027  0.41507153  0.16106270     0.36800
C936        C  0.79670231  0.51051927  0.18148147     0.40100
N937        N  0.63203990  0.42413440  0.25379234    -0.38000
N938        N  0.70987619  0.45704826  0.25240137    -0.39600
N939        N  0.63565536  0.44835491  0.10252871    -0.37300
N940        N  0.71305828  0.47774071  0.10153309    -0.39700
N941        N  0.74914765  0.52805441  0.18892495    -0.39500
N942        N  0.81638858  0.52983323  0.18587700    -0.37100
N943        N  0.74476802  0.39621325  0.15473928    -0.38200
N944        N  0.67966344  0.39594684  0.15562581    -0.39800
C945        C  0.75652438  0.49116488  0.84912145    -0.04800
C946        C  0.75618833  0.46808643  0.84483455     0.09400
C947        C  0.73245818  0.44456442  0.83871546    -0.02200
C948        C  0.70891206  0.44386357  0.83783742    -0.00400
C949        C  0.70883209  0.46670644  0.84391613    -0.04000
C950        C  0.73296152  0.49055335  0.84859771     0.03000
C951        C  0.78057848  0.46792727  0.84747034     0.09800
C952        C  0.73225038  0.42082156  0.83414681     0.35700
C953        C  0.73379181  0.51468827  0.85197085     0.39100
C954        C  0.78779595  0.46325301  0.87518796    -0.04400
C955        C  0.80708464  0.45720875  0.87693317     0.02800
C956        C  0.81853565  0.45488215  0.85092583    -0.04000
C957        C  0.81355058  0.46264798  0.82357132    -0.00200
C958        C  0.79453616  0.46917654  0.82191243    -0.02800
C959        C  0.77431936  0.46319452  0.90170587     0.36500
C960        C  0.82662797  0.46236521  0.79689077     0.40100
C961        C  0.81506084  0.45313642  0.90549371     0.39200
C962        C  0.78821840  0.47581276  0.79375168     0.36100
C963        C  0.78117443  0.51546348  0.85431261     0.36800
C964        C  0.68483426  0.41928426  0.83142328     0.40100
N965        N  0.82172517  0.45007538  0.92817780    -0.38000
N966        N  0.76354316  0.46306684  0.92287888    -0.39600
N967        N  0.83712695  0.46228491  0.77556978    -0.37300
N968        N  0.78308057  0.48116003  0.77136999    -0.39700
N969        N  0.73216549  0.40194298  0.83061629    -0.39500
N970        N  0.66576418  0.39968164  0.82601613    -0.37100
N971        N  0.73454892  0.53401186  0.85449782    -0.38200
N972        N  0.80089409  0.53481525  0.85843222    -0.39800
C973        C  0.54966426  0.41172767  0.03862129    -0.04800
C974        C  0.57070185  0.43757321  0.03329924     0.09400
C975        C  0.58214862  0.45472596  0.05715084    -0.02200
C976        C  0.57452950  0.44542650  0.08645536    -0.00400
C977        C  0.55513499  0.41866058  0.09216179    -0.04000
C978        C  0.54164927  0.40236253  0.06784068     0.03000
C979        C  0.58313650  0.44555042  0.00319944     0.09800
C980        C  0.60289459  0.48170274  0.05146916     0.35700
C981        C  0.51986240  0.37569647  0.07261996     0.39100
C982        C  0.57410235  0.45561801  0.98161920    -0.04400
C983        C  0.58520449  0.46165999  0.95289220     0.02800
C984        C  0.60563312  0.45789614  0.94562256    -0.04000
C985        C  0.61503295  0.44835382  0.96764674    -0.00200
C986        C  0.60379088  0.44220201  0.99618963    -0.02800
C987        C  0.55323446  0.45954187  0.98898497     0.36500
C988        C  0.63530669  0.44337243  0.96070683     0.40100
C989        C  0.57578145  0.47203626  0.93091294     0.39200
C990        C  0.61300378  0.43168055  0.01832019     0.36100
C991        C  0.53724605  0.39436805  0.01390918     0.36800
C992        C  0.58828923  0.46324430  0.11044602     0.40100
N993        N  0.56834173  0.48032515  0.91327514    -0.38000
N994        N  0.53659393  0.46271131  0.99487550    -0.39600
N995        N  0.65140187  0.43928018  0.95527654    -0.37300
N996        N  0.62023182  0.42322686  0.03600716    -0.39700
N997        N  0.61943551  0.50321560  0.04691095    -0.39500
N998        N  0.59945029  0.47755396  0.12945477    -0.37100
N999        N  0.50245043  0.35439683  0.07620603    -0.38200
N1000       N  0.52749598  0.38061864  0.99408951    -0.39800
C1001       C  0.70923484  0.28999346  0.15482570    -0.04800
C1002       C  0.73424477  0.29378682  0.15432907     0.09400
C1003       C  0.73679984  0.27208972  0.15441062    -0.02200
C1004       C  0.71437126  0.24656842  0.15706959    -0.00400
C1005       C  0.68929027  0.24276326  0.15921106    -0.04000
C1006       C  0.68681890  0.26458596  0.15696700     0.03000
C1007       C  0.75775330  0.32087466  0.15560268     0.09800
C1008       C  0.76256434  0.27618707  0.15191519     0.35700
C1009       C  0.66115834  0.26091100  0.15597465     0.39100
C1010       C  0.76748306  0.33238053  0.18327837    -0.04400
C1011       C  0.78682622  0.35921126  0.18504048     0.02800
C1012       C  0.79632461  0.37470547  0.15901614    -0.04000
C1013       C  0.78777543  0.36268867  0.13120755    -0.00200
C1014       C  0.76844835  0.33583433  0.12955252    -0.02800
C1015       C  0.75646533  0.31680736  0.21004095     0.36500
C1016       C  0.79878182  0.37794376  0.10424598     0.40100
C1017       C  0.79557473  0.37096654  0.21380316     0.39200
C1018       C  0.75873568  0.32373998  0.10112844     0.36100
C1019       C  0.70666973  0.31238368  0.15334896     0.36800
C1020       C  0.71728274  0.22444504  0.15878969     0.40100
N1021       N  0.80245969  0.38009401  0.23686959    -0.38000
N1022       N  0.74755957  0.30436862  0.23133931    -0.39600
N1023       N  0.80760231  0.39010944  0.08275729    -0.37300
N1024       N  0.75090731  0.31406725  0.07847138    -0.39700
N1025       N  0.78317100  0.27959233  0.14967255    -0.39500
N1026       N  0.71963681  0.20680216  0.16018148    -0.37100
N1027       N  0.64062532  0.25778360  0.15501882    -0.38200
N1028       N  0.70475561  0.33030336  0.15208762    -0.39800
C1029       C  0.56017067  0.23266910  0.14813420    -0.04800
C1030       C  0.56007278  0.24445504  0.17471357     0.09400
C1031       C  0.56546607  0.23636865  0.20148150    -0.02200
C1032       C  0.57319243  0.21822923  0.20142016    -0.00400
C1033       C  0.57447540  0.20718344  0.17456618    -0.04000
C1034       C  0.56682702  0.21374832  0.14809586     0.03000
C1035       C  0.55813818  0.26797065  0.17400063     0.09800
C1036       C  0.56434772  0.24781775  0.22894610     0.35700
C1037       C  0.56639629  0.20155177  0.12054433     0.39100
C1038       C  0.53396441  0.26572394  0.17812439    -0.04400
C1039       C  0.53280748  0.28835980  0.17829333     0.02800
C1040       C  0.55591603  0.31336400  0.17438000    -0.04000
C1041       C  0.57990630  0.31531318  0.16914666    -0.00200
C1042       C  0.58100367  0.29279132  0.16913059    -0.02800
C1043       C  0.51035735  0.24011338  0.18227040     0.36500
C1044       C  0.60348620  0.34048724  0.16264690     0.40100
C1045       C  0.50796851  0.28587235  0.18328240     0.39200
C1046       C  0.60581791  0.29521458  0.16395218     0.36100
C1047       C  0.55478824  0.24111444  0.12057540     0.36800
C1048       C  0.58215076  0.21298902  0.22862953     0.40100
N1049       N  0.48811441  0.28385641  0.18718866    -0.38000
N1050       N  0.49149342  0.21966479  0.18551929    -0.39600
N1051       N  0.62215936  0.36062084  0.15736802    -0.37300
N1052       N  0.62572256  0.29744677  0.15971234    -0.39700
N1053       N  0.56331941  0.25689630  0.25083746    -0.39500
N1054       N  0.58960211  0.20907144  0.25026725    -0.37100
N1055       N  0.56614620  0.19183903  0.09859959    -0.38200
N1056       N  0.55071277  0.24802847  0.09858341    -0.39800
C1057       C  0.54670139  0.27097772  0.85752886    -0.04800
C1058       C  0.57134603  0.29424124  0.85362701     0.09400
C1059       C  0.59381253  0.29330882  0.84942174    -0.02200
C1060       C  0.59168718  0.26911641  0.84890100    -0.00400
C1061       C  0.56699082  0.24559941  0.85297360    -0.04000
C1062       C  0.54452383  0.24667261  0.85759122     0.03000
C1063       C  0.57432029  0.32013462  0.85550277     0.09800
C1064       C  0.61925888  0.31744608  0.84624378     0.35700
C1065       C  0.51909343  0.22284705  0.86195983     0.39100
C1066       C  0.58174426  0.33352150  0.88244414    -0.04400
C1067       C  0.58927838  0.35979358  0.88338566     0.02800
C1068       C  0.59001449  0.37298794  0.85716598    -0.04000
C1069       C  0.58069719  0.35894342  0.83060336    -0.00200
C1070       C  0.57297161  0.33254215  0.82979751    -0.02800
C1071       C  0.58329849  0.32068994  0.90878214     0.36500
C1072       C  0.58084488  0.37202072  0.80361597     0.40100
C1073       C  0.59657146  0.37324102  0.91138393     0.39200
C1074       C  0.56535472  0.31862166  0.80212988     0.36100
C1075       C  0.52366490  0.27216702  0.86149281     0.36800
C1076       C  0.61522894  0.26869933  0.84540748     0.40100
N1077       N  0.60225487  0.38371822  0.93385397    -0.38000
N1078       N  0.58478657  0.31046871  0.92963210    -0.39600
N1079       N  0.58098357  0.38248198  0.78210286    -0.37300
N1080       N  0.55942956  0.30757140  0.78001507    -0.39700
N1081       N  0.63947119  0.33676285  0.84390522    -0.39500
N1082       N  0.63407837  0.26852918  0.84259820    -0.37100
N1083       N  0.49880287  0.20386042  0.86560482    -0.38200
N1084       N  0.50529650  0.27316340  0.86451334    -0.39800
C1085       C  0.55987274  0.10913075  0.97414318    -0.04800
C1086       C  0.56364936  0.12637854  0.99707817     0.09400
C1087       C  0.56177599  0.14811773  0.99091204    -0.02200
C1088       C  0.55686306  0.15300403  0.96200339    -0.00400
C1089       C  0.55400815  0.13628580  0.93868352    -0.04000
C1090       C  0.55497700  0.11399627  0.94508437     0.03000
C1091       C  0.57024914  0.12240452  0.02777780     0.09800
C1092       C  0.56606900  0.16623883  0.01419245     0.35700
C1093       C  0.55059489  0.09584235  0.92186039     0.39100
C1094       C  0.59576123  0.12896593  0.03441428    -0.04400
C1095       C  0.60327235  0.12983782  0.06404681     0.02800
C1096       C  0.58598662  0.12617597  0.08746908    -0.04000
C1097       C  0.55961600  0.11708910  0.08058826    -0.00200
C1098       C  0.55179390  0.11482798  0.05085508    -0.02800
C1099       C  0.61486591  0.13657144  0.01084741     0.36500
C1100       C  0.54071913  0.11173914  0.10369963     0.40100
C1101       C  0.62905342  0.13499747  0.07027915     0.39200
C1102       C  0.52501856  0.10617935  0.04386489     0.36100
C1103       C  0.56158887  0.08668174  0.98038815     0.36800
C1104       C  0.55644261  0.17630961  0.95617998     0.40100
N1105       N  0.64956160  0.13895761  0.07522258    -0.38000
N1106       N  0.63016309  0.14279273  0.99208291    -0.39600
N1107       N  0.52549864  0.10752021  0.12195005    -0.37300
N1108       N  0.50371927  0.09936794  0.03814258    -0.39700
N1109       N  0.56949692  0.18075649  0.03265688    -0.39500
N1110       N  0.55614059  0.19490377  0.95159900    -0.37100
N1111       N  0.54695317  0.08126374  0.90336944    -0.38200
N1112       N  0.56319235  0.06889959  0.98537751    -0.39800
C1113       C  0.69018171  0.25547492  0.83109757    -0.04800
C1114       C  0.70297006  0.25995664  0.85839028     0.09400
C1115       C  0.68990128  0.24278909  0.88241383    -0.02200
C1116       C  0.66364251  0.22203098  0.87961585    -0.00400
C1117       C  0.65018317  0.21878938  0.85301218    -0.04000
C1118       C  0.66384364  0.23489723  0.82834624     0.03000
C1119       C  0.72937118  0.28418314  0.86221778     0.09800
C1120       C  0.70302507  0.24734478  0.91043834     0.35700
C1121       C  0.65036416  0.23170227  0.80081877     0.39100
C1122       C  0.73144080  0.30809622  0.86698007    -0.04400
C1123       C  0.75615911  0.33157229  0.86732368     0.02800
C1124       C  0.77909562  0.33148327  0.86164252    -0.04000
C1125       C  0.77694340  0.30729379  0.85766266    -0.00200
C1126       C  0.75215162  0.28367919  0.85875647    -0.02800
C1127       C  0.70795337  0.30857595  0.87076568     0.36500
C1128       C  0.79980818  0.30662897  0.85022912     0.40100
C1129       C  0.75777020  0.35578483  0.87364072     0.39200
C1130       C  0.74988566  0.25880605  0.85572182     0.36100
C1131       C  0.70375593  0.27314462  0.80638542     0.36800
C1132       C  0.65030265  0.20412350  0.90423273     0.40100
N1133       N  0.75894851  0.37502725  0.87866887    -0.38000
N1134       N  0.68925402  0.30901938  0.87357456    -0.39600
N1135       N  0.81789329  0.30592998  0.84388483    -0.37300
N1136       N  0.74789046  0.23884524  0.85366460    -0.39700
N1137       N  0.71340043  0.25101017  0.93287983    -0.39500
N1138       N  0.63957285  0.18970655  0.92372046    -0.37100
N1139       N  0.63964128  0.22925426  0.77886857    -0.38200
N1140       N  0.71464319  0.28744867  0.78686226    -0.39800
C1141       C  0.97756851  0.35079654  0.55514140    -0.04800
C1142       C  0.99672257  0.37633882  0.54574064     0.09400
C1143       C  0.98888188  0.39315036  0.53603248    -0.02200
C1144       C  0.96214792  0.38469455  0.53590886    -0.00400
C1145       C  0.94265011  0.35927756  0.54629930    -0.04000
C1146       C  0.95082270  0.34242525  0.55604023     0.03000
C1147       C  0.02539653  0.38678804  0.54893732     0.09800
C1148       C  0.00862798  0.41975982  0.52718490     0.35700
C1149       C  0.93221683  0.31695403  0.56884052     0.39100
C1150       C  0.04067218  0.38824839  0.52457673    -0.04400
C1151       C  0.06833437  0.40238379  0.52651486     0.02800
C1152       C  0.08094939  0.41501267  0.55313687    -0.04000
C1153       C  0.06517051  0.41108396  0.57824951    -0.00200
C1154       C  0.03767985  0.39736491  0.57603603    -0.02800
C1155       C  0.02779834  0.37562495  0.49732972     0.36500
C1156       C  0.07687049  0.42073753  0.60682266     0.40100
C1157       C  0.08360221  0.40533214  0.50040915     0.39200
C1158       C  0.02189476  0.39464544  0.60161026     0.36100
C1159       C  0.98557056  0.33332161  0.56470349     0.36800
C1160       C  0.95540786  0.40289920  0.52550344     0.40100
N1161       N  0.09562453  0.40773277  0.47939150    -0.38000
N1162       N  0.01737044  0.36533934  0.47572294    -0.39600
N1163       N  0.08518908  0.42783642  0.63016088    -0.37300
N1164       N  0.00924284  0.39238450  0.62196401    -0.39700
N1165       N  0.02427715  0.44104355  0.52032511    -0.39500
N1166       N  0.95135391  0.41853057  0.51765182    -0.37100
N1167       N  0.91749473  0.29653395  0.57892457    -0.38200
N1168       N  0.99190493  0.31932679  0.57227395    -0.39800
C1169       C  0.90167952  0.39476662  0.65920869    -0.04800
C1170       C  0.89341374  0.37596673  0.68193480     0.09400
C1171       C  0.88973034  0.35156534  0.67565243    -0.02200
C1172       C  0.89203120  0.34524320  0.64632482    -0.00400
C1173       C  0.89562056  0.36225876  0.62250990    -0.04000
C1174       C  0.90274247  0.38812705  0.62963003     0.03000
C1175       C  0.88807613  0.38195471  0.71223056     0.09800
C1176       C  0.88336361  0.33286825  0.69938112     0.35700
C1177       C  0.91163272  0.40857890  0.60749213     0.39100
C1178       C  0.86386816  0.37910089  0.71836202    -0.04400
C1179       C  0.85935798  0.38680163  0.74584061     0.02800
C1180       C  0.87847153  0.39596863  0.76823921    -0.04000
C1181       C  0.90254552  0.39836868  0.76223598    -0.00200
C1182       C  0.90755008  0.39201384  0.73407316    -0.02800
C1183       C  0.84344876  0.36798191  0.69635800     0.36500
C1184       C  0.92257988  0.40837404  0.78460561     0.40100
C1185       C  0.83479811  0.38495299  0.75103956     0.39200
C1186       C  0.93298177  0.39649293  0.72717057     0.36100
C1187       C  0.90918762  0.42114372  0.66651567     0.36800
C1188       C  0.89266621  0.32210283  0.64103625     0.40100
N1189       N  0.81537637  0.38380501  0.75511010    -0.38000
N1190       N  0.82706170  0.35890782  0.67894379    -0.39600
N1191       N  0.93854469  0.41635919  0.80250313    -0.37300
N1192       N  0.95333060  0.40026181  0.72143727    -0.39700
N1193       N  0.87826752  0.31791014  0.71829227    -0.39500
N1194       N  0.89357562  0.30384432  0.63695814    -0.37100
N1195       N  0.91940289  0.42574996  0.59075631    -0.38200
N1196       N  0.91545344  0.44221027  0.67248847    -0.39800
C1197       C  0.61227869  0.98007353  0.44490802    -0.04800
C1198       C  0.62087030  0.99121658  0.47292356     0.09400
C1199       C  0.61639251  0.97478104  0.49737355    -0.02200
C1200       C  0.60255970  0.94729621  0.49404540    -0.00400
C1201       C  0.59352359  0.93583912  0.46588798    -0.04000
C1202       C  0.59853881  0.95270627  0.44137264     0.03000
C1203       C  0.63332814  0.02018323  0.47663286     0.09800
C1204       C  0.62537171  0.98625076  0.52620802     0.35700
C1205       C  0.58857706  0.94259666  0.41236619     0.39100
C1206       C  0.61820827  0.03009109  0.48622038    -0.04400
C1207       C  0.62912004  0.05735282  0.48695224     0.02800
C1208       C  0.65538490  0.07517100  0.47794994    -0.04000
C1209       C  0.67063031  0.06506709  0.46887448    -0.00200
C1210       C  0.65969794  0.03780158  0.46850436    -0.02800
C1211       C  0.59108037  0.01217109  0.49478746     0.36500
C1212       C  0.69703170  0.08249396  0.45770124     0.40100
C1213       C  0.61285036  0.06664761  0.49677781     0.39200
C1214       C  0.67539486  0.02771885  0.45895698     0.36100
C1215       C  0.61698257  0.99682300  0.41950364     0.36800
C1216       C  0.59477721  0.93093185  0.52030942     0.40100
N1217       N  0.59896396  0.07301041  0.50457039    -0.38000
N1218       N  0.56943534  0.99820313  0.50180182    -0.39600
N1219       N  0.71804378  0.09626286  0.44856204    -0.37300
N1220       N  0.68784542  0.01959836  0.45132115    -0.39700
N1221       N  0.63258266  0.99553713  0.54915387    -0.39500
N1222       N  0.58818973  0.91823949  0.54159816    -0.37100
N1223       N  0.58079455  0.93646177  0.38867412    -0.38200
N1224       N  0.62058820  0.00972650  0.39887947    -0.39800
C1225       C  0.61986964  0.12741028  0.30653541    -0.04800
C1226       C  0.64303526  0.12768639  0.31031516     0.09400
C1227       C  0.65791151  0.12976263  0.28529882    -0.02200
C1228       C  0.65082784  0.13357713  0.25689041    -0.00400
C1229       C  0.62881078  0.13573188  0.25317487    -0.04000
C1230       C  0.61293468  0.13178906  0.27833429     0.03000
C1231       C  0.65309070  0.12868006  0.34090629     0.09800
C1232       C  0.68079555  0.12829439  0.28897179     0.35700
C1233       C  0.59021642  0.13371791  0.27597848     0.39100
C1234       C  0.64402074  0.10579166  0.35777398    -0.04400
C1235       C  0.65173792  0.10724138  0.38754668     0.02800
C1236       C  0.66837987  0.13183222  0.40124814    -0.04000
C1237       C  0.67862360  0.15475420  0.38319210    -0.00200
C1238       C  0.67111846  0.15301407  0.35337121    -0.02800
C1239       C  0.62681866  0.08063738  0.34420962     0.36500
C1240       C  0.69650411  0.18061729  0.39463340     0.40100
C1241       C  0.64284036  0.08302148  0.40327013     0.39200
C1242       C  0.68183086  0.17652219  0.33528434     0.36100
C1243       C  0.60338793  0.12313132  0.33198873     0.36800
C1244       C  0.66649535  0.13538677  0.23164061     0.40100
N1245       N  0.63504462  0.06315423  0.41499295    -0.38000
N1246       N  0.61319770  0.06059863  0.33329821    -0.39600
N1247       N  0.71132805  0.20165740  0.40239613    -0.37300
N1248       N  0.69047643  0.19518444  0.32075304    -0.39700
N1249       N  0.69899280  0.12701972  0.29192050    -0.39500
N1250       N  0.67907318  0.13685440  0.21156281    -0.37100
N1251       N  0.57213435  0.13535017  0.27434462    -0.38200
N1252       N  0.59008870  0.11941866  0.35222562    -0.39800
C1253       C  0.79676802  0.25610641  0.54935489    -0.04800
C1254       C  0.79788086  0.24438941  0.52323666     0.09400
C1255       C  0.82059815  0.25764167  0.50551878    -0.02200
C1256       C  0.84210914  0.28237481  0.51386455    -0.00400
C1257       C  0.84235835  0.29339472  0.54172176    -0.04000
C1258       C  0.81813006  0.28090949  0.55775038     0.03000
C1259       C  0.77352078  0.22040069  0.51185332     0.09800
C1260       C  0.82135688  0.24617038  0.47787516     0.35700
C1261       C  0.81322355  0.29463085  0.58022430     0.39100
C1262       C  0.75478467  0.22306083  0.49709656    -0.04400
C1263       C  0.73149446  0.20088361  0.48681251     0.02800
C1264       C  0.72629358  0.17501544  0.49076230    -0.04000
C1265       C  0.74676616  0.17307484  0.50340626    -0.00200
C1266       C  0.76947761  0.19544407  0.51496861    -0.02800
C1267       C  0.75956631  0.24900354  0.49257741     0.36500
C1268       C  0.74669947  0.14928574  0.50237579     0.40100
C1269       C  0.71287487  0.20535605  0.47244575     0.39200
C1270       C  0.78904827  0.19292201  0.53007568     0.36100
C1271       C  0.77292220  0.24292548  0.56701101     0.36800
C1272       C  0.86222771  0.29755446  0.49177451     0.40100
N1273       N  0.69794913  0.20921700  0.46182545    -0.38000
N1274       N  0.76345011  0.26968806  0.48902393    -0.39600
N1275       N  0.74787750  0.13091082  0.50186334    -0.37300
N1276       N  0.80463794  0.19099564  0.54227810    -0.39700
N1277       N  0.82195329  0.23691128  0.45592526    -0.39500
N1278       N  0.87799656  0.30963898  0.47387990    -0.37100
N1279       N  0.80881643  0.30535291  0.59798701    -0.38200
N1280       N  0.75386766  0.23228575  0.58098549    -0.39800
C1281       C  0.97609443  0.60138268  0.44600157    -0.04800
C1282       C  0.98904810  0.61282883  0.47256072     0.09400
C1283       C  0.97439070  0.61220082  0.49711848    -0.02200
C1284       C  0.94677093  0.59882127  0.49574637    -0.00400
C1285       C  0.93341554  0.58591997  0.46955930    -0.04000
C1286       C  0.94856272  0.58822485  0.44436266     0.03000
C1287       C  0.01796489  0.62412090  0.47501778     0.09800
C1288       C  0.98782555  0.62475349  0.52415456     0.35700
C1289       C  0.93621183  0.57739527  0.41632261     0.39100
C1290       C  0.03629721  0.65071901  0.46876564    -0.04400
C1291       C  0.06346168  0.66082571  0.46934654     0.02800
C1292       C  0.07276009  0.64437100  0.47640132    -0.04000
C1293       C  0.05405898  0.61773236  0.48339917    -0.00200
C1294       C  0.02695255  0.60775775  0.48254106    -0.02800
C1295       C  0.02707171  0.66759129  0.46102805     0.36500
C1296       C  0.06224482  0.60021187  0.49192167     0.40100
C1297       C  0.08147976  0.68797177  0.46116307     0.39200
C1298       C  0.00804493  0.58035665  0.48908367     0.36100
C1299       C  0.99121692  0.60271747  0.42039077     0.36800
C1300       C  0.93225736  0.59722334  0.52200303     0.40100
N1301       N  0.09534886  0.70976122  0.45472250    -0.38000
N1302       N  0.01972216  0.68105449  0.45484407    -0.39600
N1303       N  0.06783621  0.58544627  0.49860061    -0.37300
N1304       N  0.99286094  0.55852294  0.49421422    -0.39700
N1305       N  0.99864428  0.63484678  0.54566303    -0.39500
N1306       N  0.92074798  0.59589702  0.54306550    -0.37100
N1307       N  0.92731109  0.56913749  0.39346365    -0.38200
N1308       N  0.00326054  0.60375184  0.39998084    -0.39800
C1309       C  0.85566062  0.45205477  0.49437836    -0.04800
C1310       C  0.87644570  0.45481703  0.51121799     0.09400
C1311       C  0.89590771  0.47964046  0.52164665    -0.02200
C1312       C  0.89495778  0.50175901  0.51462742    -0.00400
C1313       C  0.87504216  0.49926852  0.49632620    -0.04000
C1314       C  0.85507880  0.47424221  0.48666974     0.03000
C1315       C  0.87758913  0.43147207  0.51864055     0.09800
C1316       C  0.91691424  0.48233802  0.53962768     0.35700
C1317       C  0.83473799  0.47143200  0.46735754     0.39100
C1318       C  0.88893983  0.42257687  0.49866440    -0.04400
C1319       C  0.89116515  0.40134319  0.50649461     0.02800
C1320       C  0.88256576  0.38934406  0.53455591    -0.04000
C1321       C  0.86884896  0.39659998  0.55319144    -0.00200
C1322       C  0.86689480  0.41797914  0.54554357    -0.02800
C1323       C  0.89765781  0.43482735  0.46978556     0.36500
C1324       C  0.85568038  0.38137427  0.57960160     0.40100
C1325       C  0.90103286  0.39098031  0.48516407     0.39200
C1326       C  0.85329253  0.42575066  0.56497579     0.36100
C1327       C  0.83494288  0.42634737  0.48492638     0.36800
C1328       C  0.91397540  0.52680061  0.52712367     0.40100
N1329       N  0.90887511  0.38268326  0.46814194    -0.38000
N1330       N  0.90440360  0.44436443  0.44660015    -0.39600
N1331       N  0.84501611  0.36928102  0.60063658    -0.37300
N1332       N  0.84233229  0.43190006  0.58036823    -0.39700
N1333       N  0.93365780  0.48443073  0.55394953    -0.39500
N1334       N  0.92915871  0.54640697  0.53790036    -0.37100
N1335       N  0.81872622  0.46909112  0.45152316    -0.38200
N1336       N  0.81835046  0.40580961  0.47753543    -0.39800
C1337       C  0.87399111  0.50146003  0.36664937    -0.04800
C1338       C  0.86748719  0.51324702  0.34445116     0.09400
C1339       C  0.86232513  0.53244098  0.35209177    -0.02200
C1340       C  0.86389642  0.54004944  0.38177242    -0.00400
C1341       C  0.86940511  0.52754968  0.40469994    -0.04000
C1342       C  0.87503978  0.50848327  0.39648553     0.03000
C1343       C  0.86598213  0.50518646  0.31295782     0.09800
C1344       C  0.85522809  0.54432382  0.32924402     0.35700
C1345       C  0.88273835  0.49612823  0.41785415     0.39100
C1346       C  0.84484938  0.48067623  0.30387159    -0.04400
C1347       C  0.84361004  0.47261835  0.27455870     0.02800
C1348       C  0.86356680  0.48902805  0.25394102    -0.04000
C1349       C  0.88462035  0.51364185  0.26296757    -0.00200
C1350       C  0.88590511  0.52162778  0.29244206    -0.02800
C1351       C  0.82418415  0.46378488  0.32473114     0.36500
C1352       C  0.90522979  0.53049655  0.24211217     0.40100
C1353       C  0.82092447  0.44793003  0.26535383     0.39200
C1354       C  0.90783886  0.54669046  0.30178866     0.36100
C1355       C  0.87958946  0.48185048  0.35859082     0.36800
C1356       C  0.86149820  0.56204539  0.38799909     0.40100
N1357       N  0.80273244  0.42833448  0.25805626    -0.38000
N1358       N  0.80779179  0.45024552  0.34139571    -0.39600
N1359       N  0.92166166  0.54389357  0.22541702    -0.37300
N1360       N  0.92527928  0.56672817  0.30927581    -0.39700
N1361       N  0.84956134  0.55377962  0.31102035    -0.39500
N1362       N  0.85952653  0.57959653  0.39267739    -0.37100
N1363       N  0.88985535  0.48618365  0.43358566    -0.38200
N1364       N  0.88382437  0.46610318  0.35208766    -0.39800
C1365       C  0.62888486  0.59963657  0.52868225    -0.04800
C1366       C  0.63722890  0.62136457  0.54727354     0.09400
C1367       C  0.65972279  0.62997370  0.56474748    -0.02200
C1368       C  0.67143131  0.61516229  0.56642185    -0.00400
C1369       C  0.66168022  0.59239081  0.54944613    -0.04000
C1370       C  0.64227953  0.58647945  0.52841805     0.03000
C1371       C  0.62189421  0.63447062  0.54915255     0.09800
C1372       C  0.67062977  0.65389779  0.58132148     0.35700
C1373       C  0.63698780  0.56767070  0.50564527     0.39100
C1374       C  0.60894126  0.63334074  0.57563582    -0.04400
C1375       C  0.59372704  0.64458039  0.57732644     0.02800
C1376       C  0.58980854  0.65598954  0.55206396    -0.04000
C1377       C  0.60294074  0.65717387  0.52552808    -0.00200
C1378       C  0.61946550  0.64731737  0.52441090    -0.02800
C1379       C  0.61099065  0.62035342  0.60150669     0.36500
C1380       C  0.59847252  0.66703851  0.49857109     0.40100
C1381       C  0.58302008  0.64481282  0.60581670     0.39200
C1382       C  0.63407087  0.65044902  0.49760899     0.36100
C1383       C  0.60579655  0.58995675  0.51074614     0.36800
C1384       C  0.69308439  0.62294191  0.58619943     0.40100
N1385       N  0.57541713  0.64434790  0.62938349    -0.38000
N1386       N  0.61250362  0.61035733  0.62253853    -0.39600
N1387       N  0.59504367  0.67425213  0.47641231    -0.37300
N1388       N  0.64568691  0.65293428  0.47620542    -0.39700
N1389       N  0.67934905  0.67299659  0.59455634    -0.39500
N1390       N  0.71030798  0.62900272  0.60202177    -0.37100
N1391       N  0.63302388  0.55286090  0.48730909    -0.38200
N1392       N  0.58728634  0.58214046  0.49653821    -0.39800
C1393       C  0.64404515  0.54404469  0.67301128    -0.04800
C1394       C  0.64969597  0.52723358  0.68775098     0.09400
C1395       C  0.66234017  0.51700361  0.67233136    -0.02200
C1396       C  0.66912303  0.52331494  0.64225259    -0.00400
C1397       C  0.66427924  0.54093162  0.62727596    -0.04000
C1398       C  0.65108494  0.55074293  0.64295308     0.03000
C1399       C  0.64291833  0.52046638  0.71979500     0.09800
C1400       C  0.66896166  0.50033260  0.68776940     0.35700
C1401       C  0.64461023  0.56786587  0.62871851     0.39100
C1402       C  0.61794113  0.49940991  0.72842701    -0.04400
C1403       C  0.61325810  0.48982903  0.75779049     0.02800
C1404       C  0.63360588  0.50136850  0.77885824    -0.04000
C1405       C  0.65755775  0.52466309  0.77083028    -0.00200
C1406       C  0.66221529  0.53388522  0.74133294    -0.02800
C1407       C  0.59722190  0.48727162  0.70686333     0.36500
C1408       C  0.67803058  0.53878044  0.79230811     0.40100
C1409       C  0.58743314  0.46800620  0.76612239     0.39200
C1410       C  0.68726386  0.55676818  0.73273593     0.36100
C1411       C  0.63161398  0.55505302  0.68920205     0.36800
C1412       C  0.68052432  0.51089029  0.62693240     0.40100
N1413       N  0.56681248  0.45060877  0.77271985    -0.38000
N1414       N  0.58060485  0.47773384  0.68974745    -0.39600
N1415       N  0.69441089  0.55029881  0.80933671    -0.37300
N1416       N  0.70719125  0.57500376  0.72571663    -0.39700
N1417       N  0.67451975  0.48729514  0.70013263    -0.39500
N1418       N  0.68999002  0.50106128  0.61532324    -0.37100
N1419       N  0.63848302  0.58105961  0.61799468    -0.38200
N1420       N  0.62183836  0.56390817  0.70224145    -0.39800
C1421       C  0.75486740  0.56344671  0.49970472    -0.04800
C1422       C  0.77471454  0.56848049  0.51976537     0.09400
C1423       C  0.77335373  0.57629713  0.54852178    -0.02200
C1424       C  0.75147984  0.57718796  0.55766392    -0.00400
C1425       C  0.72888304  0.56680144  0.53952669    -0.04000
C1426       C  0.73233380  0.56296560  0.50928952     0.03000
C1427       C  0.79639632  0.56457540  0.51069576     0.09800
C1428       C  0.79448940  0.58332550  0.56883536     0.35700
C1429       C  0.71325450  0.55940651  0.48756885     0.39100
C1430       C  0.81919480  0.58447617  0.49617342    -0.04400
C1431       C  0.83838930  0.57979435  0.48561575     0.02800
C1432       C  0.83595377  0.55534245  0.49097929    -0.04000
C1433       C  0.81128800  0.53470387  0.50267819    -0.00200
C1434       C  0.79256423  0.53970612  0.51372639    -0.02800
C1435       C  0.82242529  0.60965610  0.49116490     0.36500
C1436       C  0.80320633  0.50755922  0.50078226     0.40100
C1437       C  0.85892313  0.59943025  0.46649023     0.39200
C1438       C  0.76852926  0.51876944  0.52740653     0.36100
C1439       C  0.75761416  0.55842221  0.46912698     0.36800
C1440       C  0.75411839  0.59197903  0.58378835     0.40100
N1441       N  0.87509778  0.61518581  0.45106389    -0.38000
N1442       N  0.82496878  0.62972489  0.48710270    -0.39600
N1443       N  0.79603084  0.48567250  0.49965190    -0.37300
N1444       N  0.74935975  0.50217379  0.53833733    -0.39700
N1445       N  0.81126126  0.58877452  0.58513277    -0.39500
N1446       N  0.75647098  0.60401428  0.60453806    -0.37100
N1447       N  0.69810218  0.55659282  0.47013210    -0.38200
N1448       N  0.76009796  0.55459605  0.44474779    -0.39800
C1449       C  0.38652378  0.02359979  0.56426188    -0.04800
C1450       C  0.39404427  0.01152888  0.54341772     0.09400
C1451       C  0.41375531  0.02744182  0.52240016    -0.02200
C1452       C  0.42665085  0.05494201  0.52338083    -0.00400
C1453       C  0.42195231  0.06681318  0.54706049    -0.04000
C1454       C  0.40051027  0.05116849  0.56610302     0.03000
C1455       C  0.38309684  0.98255176  0.54552283     0.09800
C1456       C  0.42216618  0.01571347  0.50111680     0.35700
C1457       C  0.39319049  0.06349027  0.58790620     0.39100
C1458       C  0.36745752  0.96525967  0.52308047    -0.04400
C1459       C  0.35889292  0.93847921  0.52467971     0.02800
C1460       C  0.36303800  0.92765209  0.55049699    -0.04000
C1461       C  0.37913230  0.94547743  0.57289685    -0.00200
C1462       C  0.38977013  0.97260853  0.56966800    -0.02800
C1463       C  0.36045235  0.97508216  0.49793466     0.36500
C1464       C  0.38587785  0.93705617  0.59942755     0.40100
C1465       C  0.34792246  0.92285906  0.49841776     0.39200
C1466       C  0.40870324  0.99065741  0.59083938     0.36100
C1467       C  0.36506316  0.00763418  0.58459436     0.36800
C1468       C  0.44495325  0.07110723  0.50017598     0.40100
N1469       N  0.33941495  0.91050895  0.47735343    -0.38000
N1470       N  0.35484094  0.98279141  0.47776957    -0.39600
N1471       N  0.39263247  0.93178736  0.62069560    -0.37300
N1472       N  0.42402770  0.00488905  0.60757527    -0.39700
N1473       N  0.42896716  0.00630314  0.48429561    -0.39500
N1474       N  0.45943569  0.08406951  0.48160099    -0.37100
N1475       N  0.38752305  0.07338276  0.60541479    -0.38200
N1476       N  0.34800416  0.99493497  0.60092425    -0.39800
C1477       C  0.53538628  0.10627705  0.52368787    -0.04800
C1478       C  0.55872458  0.13066358  0.51919894     0.09400
C1479       C  0.55965144  0.15356458  0.52652564    -0.02200
C1480       C  0.53699349  0.15223833  0.53699285    -0.00400
C1481       C  0.51263051  0.12777395  0.53964724    -0.04000
C1482       C  0.51269153  0.10467368  0.53452917     0.03000
C1483       C  0.58295701  0.13202083  0.50898547     0.09800
C1484       C  0.58428306  0.17858149  0.52379139     0.35700
C1485       C  0.49043651  0.07890632  0.54171217     0.39100
C1486       C  0.58949402  0.13467310  0.47872233    -0.04400
C1487       C  0.61197277  0.13522352  0.46917120     0.02800
C1488       C  0.62826104  0.13335196  0.48989091    -0.04000
C1489       C  0.62164887  0.13085288  0.52033633    -0.00200
C1490       C  0.59912651  0.13019927  0.52974063    -0.02800
C1491       C  0.57323058  0.13724730  0.45744090     0.36500
C1492       C  0.63736762  0.12787316  0.54206809     0.40100
C1493       C  0.61865848  0.13866832  0.43805039     0.39200
C1494       C  0.59244769  0.12765644  0.56088794     0.36100
C1495       C  0.53493849  0.08261981  0.51753097     0.36800
C1496       C  0.53970342  0.17622539  0.54676524     0.40100
N1497       N  0.62355909  0.14148315  0.41308567    -0.38000
N1498       N  0.56036907  0.13945212  0.44042827    -0.39600
N1499       N  0.64985481  0.12549988  0.55946968    -0.37300
N1500       N  0.58695862  0.12567322  0.58567070    -0.39700
N1501       N  0.60398300  0.19846620  0.52167762    -0.39500
N1502       N  0.54246373  0.19572259  0.55417513    -0.37100
N1503       N  0.47380395  0.05787275  0.54816967    -0.38200
N1504       N  0.53457029  0.06376384  0.51269742    -0.39800
C1505       C  0.48808524  0.12354570  0.73722867    -0.04800
C1506       C  0.50461607  0.12887137  0.71262668     0.09400
C1507       C  0.53079928  0.13663657  0.71713775    -0.02200
C1508       C  0.54106596  0.14132252  0.74591696    -0.00400
C1509       C  0.52479583  0.13699839  0.77074013    -0.04000
C1510       C  0.49792568  0.12693926  0.76614594     0.03000
C1511       C  0.49484003  0.12774367  0.68194361     0.09800
C1512       C  0.54740660  0.14050089  0.69195542     0.35700
C1513       C  0.48020434  0.11984505  0.79108024     0.39100
C1514       C  0.50300689  0.15102575  0.66616213    -0.04400
C1515       C  0.49409410  0.15020314  0.63720841     0.02800
C1516       C  0.47531806  0.12593301  0.62420169    -0.04000
C1517       C  0.46683851  0.10263036  0.64068570    -0.00200
C1518       C  0.47722355  0.10358488  0.66885201    -0.02800
C1519       C  0.52073703  0.17600268  0.67988558     0.36500
C1520       C  0.44695558  0.07734134  0.62961705     0.40100
C1521       C  0.50529054  0.17460712  0.62086419     0.39200
C1522       C  0.47006273  0.07958872  0.68438052     0.36100
C1523       C  0.46109907  0.11543752  0.73267893     0.36800
C1524       C  0.56885176  0.15235852  0.74947698     0.40100
N1525       N  0.51427324  0.19434363  0.60836026    -0.38000
N1526       N  0.53485412  0.19585526  0.69092242    -0.39600
N1527       N  0.43129863  0.05651979  0.62205161    -0.37300
N1528       N  0.46451248  0.06050372  0.69673394    -0.39700
N1529       N  0.56066125  0.14355767  0.67190071    -0.39500
N1530       N  0.59104747  0.16134424  0.75224061    -0.37100
N1531       N  0.46590150  0.11395164  0.81085488    -0.38200
N1532       N  0.43961224  0.10901737  0.72885644    -0.39800
C1533       C  0.38490550  0.34266959  0.48496608    -0.04800
C1534       C  0.39590807  0.36931117  0.49105594     0.09400
C1535       C  0.42293564  0.38529714  0.49633498    -0.02200
C1536       C  0.43900909  0.37500408  0.49498436    -0.00400
C1537       C  0.42829817  0.34829485  0.48808717    -0.04000
C1538       C  0.40088697  0.33224202  0.48325587     0.03000
C1539       C  0.37999637  0.38155147  0.48801739     0.09800
C1540       C  0.43443158  0.41287157  0.50206034     0.35700
C1541       C  0.38909793  0.30541061  0.47411842     0.39100
C1542       C  0.36927997  0.38650926  0.51285614    -0.04400
C1543       C  0.35698274  0.40071891  0.50977472     0.02800
C1544       C  0.35572199  0.41064939  0.48178386    -0.04000
C1545       C  0.36571531  0.40467372  0.45686685    -0.00200
C1546       C  0.37742466  0.39004044  0.45999841    -0.02800
C1547       C  0.37130124  0.37730334  0.54168934     0.36500
C1548       C  0.36418888  0.41321362  0.42750966     0.40100
C1549       C  0.34686751  0.40618264  0.53580170     0.39200
C1550       C  0.38725642  0.38393573  0.43414640     0.36100
C1551       C  0.35712535  0.32618934  0.47924637     0.36800
C1552       C  0.46663460  0.39269024  0.50035673     0.40100
N1553       N  0.33879803  0.41046070  0.55664811    -0.38000
N1554       N  0.37286358  0.36994800  0.56473494    -0.39600
N1555       N  0.36402804  0.41935266  0.40334889    -0.37300
N1556       N  0.39487820  0.37899976  0.41341870    -0.39700
N1557       N  0.44357754  0.43485241  0.50649816    -0.39500
N1558       N  0.48846706  0.40819332  0.50440702    -0.37100
N1559       N  0.37935812  0.28397816  0.46670225    -0.38200
N1560       N  0.33496596  0.31306193  0.47461470    -0.39800
C1561       C  0.54155508  0.40862446  0.53667179    -0.04800
C1562       C  0.56095137  0.42600559  0.51634935     0.09400
C1563       C  0.55793886  0.41984137  0.48613554    -0.02200
C1564       C  0.53533422  0.39675051  0.47611156    -0.00400
C1565       C  0.51596238  0.37904079  0.49644292    -0.04000
C1566       C  0.51903838  0.38544825  0.52677988     0.03000
C1567       C  0.58411474  0.45143989  0.52656122     0.09800
C1568       C  0.57843522  0.43722798  0.46540350     0.35700
C1569       C  0.49773396  0.36970292  0.54740147     0.39100
C1570       C  0.60734279  0.45320956  0.53442874    -0.04400
C1571       C  0.62962887  0.47746348  0.54257138     0.02800
C1572       C  0.62892625  0.50058554  0.54345486    -0.04000
C1573       C  0.60428655  0.49767799  0.53843189    -0.00200
C1574       C  0.58256634  0.47361504  0.52879912    -0.02800
C1575       C  0.60808803  0.42973872  0.53436750     0.36500
C1576       C  0.59983981  0.51830230  0.54449385     0.40100
C1577       C  0.65271103  0.47774055  0.55127217     0.39200
C1578       C  0.55832062  0.47155466  0.52111299     0.36100
C1579       C  0.54481931  0.41468203  0.56783390     0.36800
C1580       C  0.53212646  0.39195360  0.44477282     0.40100
N1581       N  0.67094022  0.47736132  0.55759090    -0.38000
N1582       N  0.60845119  0.41090214  0.53446781    -0.39600
N1583       N  0.59464269  0.53353472  0.55008673    -0.37300
N1584       N  0.53906158  0.46996031  0.51485052    -0.39700
N1585       N  0.59495084  0.45099739  0.44898322    -0.39500
N1586       N  0.53045664  0.38949537  0.41946684    -0.37100
N1587       N  0.48046405  0.35762690  0.56369169    -0.38200
N1588       N  0.54754898  0.41946180  0.59271517    -0.39800
C1589       C  0.46868442  0.35594521  0.36379167    -0.04800
C1590       C  0.48849042  0.35398558  0.35022804     0.09400
C1591       C  0.50043236  0.34324017  0.36629684    -0.02200
C1592       C  0.49360866  0.33572656  0.39614041    -0.00400
C1593       C  0.47431042  0.33845263  0.41018838    -0.04000
C1594       C  0.46156269  0.34814256  0.39360348     0.03000
C1595       C  0.49729137  0.36346596  0.31910003     0.09800
C1596       C  0.51994936  0.34004715  0.35202625     0.35700
C1597       C  0.44055420  0.34941623  0.40683811     0.39100
C1598       C  0.52074486  0.38774847  0.31373511    -0.04400
C1599       C  0.53124276  0.39501620  0.28484818     0.02800
C1600       C  0.51853501  0.37784993  0.26097582    -0.04000
C1601       C  0.49408503  0.35426763  0.26622672    -0.00200
C1602       C  0.48347716  0.34727800  0.29512481    -0.02800
C1603       C  0.53443225  0.40501863  0.33816971     0.36500
C1604       C  0.48058714  0.33614336  0.24242381     0.40100
C1605       C  0.55527447  0.42019954  0.27987078     0.39200
C1606       C  0.45871817  0.32290482  0.30045132     0.36100
C1607       C  0.45550987  0.36582011  0.34691531     0.36800
C1608       C  0.50793164  0.32700573  0.41284805     0.40100
N1609       N  0.57443935  0.44029975  0.27598579    -0.38000
N1610       N  0.54542331  0.41885667  0.35758578    -0.39600
N1611       N  0.46983282  0.32158906  0.22349601    -0.37300
N1612       N  0.43888450  0.30355889  0.30477863    -0.39700
N1613       N  0.53543067  0.33742295  0.34056401    -0.39500
N1614       N  0.51941268  0.32017945  0.42625743    -0.37100
N1615       N  0.42363165  0.35039224  0.41705208    -0.38200
N1616       N  0.44487194  0.37351640  0.33335129    -0.39800
C1617       C  0.46224319  0.25243006  0.53291311    -0.04800
C1618       C  0.44642250  0.23010753  0.51589309     0.09400
C1619       C  0.43133484  0.23141692  0.49324256    -0.02200
C1620       C  0.43388817  0.25545627  0.48591310    -0.00400
C1621       C  0.45237336  0.27903875  0.50065135    -0.04000
C1622       C  0.46391176  0.27614490  0.52660619     0.03000
C1623       C  0.44602551  0.20538491  0.52174738     0.09800
C1624       C  0.41355868  0.20795419  0.47698442     0.35700
C1625       C  0.47526228  0.29609554  0.54892169     0.39100
C1626       C  0.43135729  0.18842764  0.54540027    -0.04400
C1627       C  0.43292006  0.16647875  0.55212770     0.02800
C1628       C  0.45039521  0.16193223  0.53623667    -0.04000
C1629       C  0.46104383  0.17633014  0.50936242    -0.00200
C1630       C  0.46021621  0.19874735  0.50326190    -0.02800
C1631       C  0.41480951  0.19376573  0.56301648     0.36500
C1632       C  0.46965534  0.16652617  0.48594152     0.40100
C1633       C  0.41547533  0.14798040  0.57451713     0.39200
C1634       C  0.47430380  0.21532153  0.47796902     0.36100
C1635       C  0.47748706  0.25113410  0.55666171     0.36800
C1636       C  0.41700940  0.25535786  0.46331222     0.40100
N1637       N  0.40142696  0.13318253  0.59226889    -0.38000
N1638       N  0.40166900  0.19808420  0.57711505    -0.39600
N1639       N  0.47638616  0.15879277  0.46695939    -0.37300
N1640       N  0.48558605  0.22876657  0.45796015    -0.39700
N1641       N  0.39950353  0.18919153  0.46402974    -0.39500
N1642       N  0.40359666  0.25485631  0.44491459    -0.37100
N1643       N  0.48447699  0.31142288  0.56741249    -0.38200
N1644       N  0.48978728  0.25004447  0.57536726    -0.39800
loop_ 
_geom_bond_atom_site_label_1 
_geom_bond_atom_site_label_2 
_geom_bond_distance 
_geom_bond_site_symmetry_2 
_ccdc_geom_bond_type 
C1            C2   1.549       .  S
C1            C7   1.543       .  S
C1            C5   1.547       .  S
C1         C1621   1.572       .  S
C2            H9   1.082       .  S
C2            C3   1.366       .  D
C3            C4   1.540       .  S
C3         C1565   1.500       .  S
C4            C8   1.542       .  S
C4            C6   1.548       .  S
C4           H10   1.109       .  S
C5           H11   1.085       .  S
C5            C6   1.379       .  D
C6         C1537   1.521       .  S
C7           H12   1.085       .  S
C7            C8   1.365       .  D
C8         C1593   1.501       .  S
C13          C14   1.555       .  S
C13          C19   1.548       .  S
C13          C17   1.531       .  S
C13        C1628   1.566       .  S
C14          H21   1.078       .  S
C14          C15   1.375       .  D
C15          C16   1.542       .  S
C15        C1481   1.523       .  S
C16          C20   1.541       .  S
C16          C18   1.553       .  S
C16          H22   1.101       .  S
C17          H23   1.086       .  S
C17          C18   1.362       .  D
C18        C1453   1.496       .  S
C19          H24   1.084       .  S
C19          C20   1.371       .  D
C20        C1516   1.515       .  S
C25          C26   1.552       .  S
C25          C31   1.550       .  S
C25          C29   1.534       .  S
C25        C1425   1.571       .  S
C26          H33   1.083       .  S
C26          C27   1.377       .  D
C27          C28   1.546       .  S
C27        C1572   1.528       .  S
C28          C32   1.538       .  S
C28          C30   1.556       .  S
C28          H34   1.100       .  S
C29          H35   1.086       .  S
C29          C30   1.366       .  D
C30        C1369   1.503       .  S
C31          H36   1.080       .  S
C31          C32   1.369       .  D
C32        C1397   1.514       .  S
C37          C38   1.544       .  S
C37          C43   1.539       .  S
C37          C41   1.558       .  S
C37        C1432   1.573       .  S
C38          H45   1.084       .  S
C38          C39   1.360       .  D
C39          C40   1.536       .  S
C39        C1313   1.486       .  S
C40          C44   1.544       .  S
C40          C42   1.537       .  S
C40          H46   1.105       .  S
C41          H47   1.083       .  S
C41          C42   1.376       .  D
C42        C1285   1.513       .  S
C43          H48   1.085       .  S
C43          C44   1.373       .  D
C44        C1341   1.517       .  S
C49          C50   1.539       .  S
C49          C55   1.542       .  S
C49          C53   1.552       .  S
C49        C1264   1.571       .  S
C50          H57   1.087       .  S
C50          C51   1.359       .  D
C51          C52   1.541       .  S
C51        C1488   1.500       .  S
C52          C56   1.551       .  S
C52          C54   1.548       .  S
C52          H58   1.107       .  S
C53          H59   1.079       .  S
C53          C54   1.374       .  D
C54        C1208   1.508       .  S
C55          H60   1.085       .  S
C55          C56   1.372       .  D
C56        C1236   1.526       .  S
C61          C62   1.522       .  S
C61          C67   1.555       .  S
C61          C65   1.548       .  S
C61        C1257   1.563       .  S
C62          H69   1.087       .  S
C62          C63   1.354       .  D
C63          C64   1.549       .  S
C63        C1320   1.486       .  S
C64          C68   1.540       .  S
C64          C66   1.546       .  S
C64          H70   1.099       .  S
C65          H71   1.084       .  S
C65          C66   1.373       .  D
C66        C1145   1.517       .  S
C67          H72   1.081       .  S
C67          C68   1.379       .  D
C68        C1173   1.522       .  S
O73          C76   1.266       .  A
O73         Cd78   2.464       .  S
C74          O83   1.264       .  A
C74          O79   1.267       .  A
C74        C1061   1.484       .  S
O75          C81   1.268       .  A
O75         Cd78   2.486       .  S
C76          O84   1.265       .  A
C76        C1089   1.492       .  S
C77          O82   1.266       .  A
C77          O80   1.265       .  A
C77        C1509   1.497       .  S
Cd78         O85   2.415       .  S
Cd78         O84   2.472       .  S
Cd78         O83   2.432       .  S
Cd78         O79   2.473       .  S
Cd78         O82   2.470       .  S
Cd78         O80   2.473       .  S
C81          O85   1.263       .  A
C81        C1117   1.480       .  S
O86          C89   1.263       .  A
O86         Cd91   2.453       .  S
C87          O96   1.265       .  A
C87          O92   1.268       .  A
C87        C1005   1.485       .  S
O88          C94   1.268       .  A
O88         Cd91   2.504       .  S
C89          O97   1.266       .  A
C89        C1096   1.503       .  S
C90          O95   1.266       .  A
C90          O93   1.264       .  A
C90        C1229   1.509       .  S
Cd91         O98   2.430       .  S
Cd91         O97   2.504       .  S
Cd91         O96   2.425       .  S
Cd91         O92   2.478       .  S
Cd91         O95   2.499       .  S
Cd91         O93   2.482       .  S
C94          O98   1.261       .  A
C94        C1033   1.493       .  S
O99         C102   1.266       .  A
O99        Cd104   2.471       .  S
C100        O109   1.264       .  A
C100        O105   1.269       .  A
C100        C949   1.493       .  S
O101        C107   1.268       .  A
O101       Cd104   2.471       .  S
C102        O110   1.265       .  A
C102        C984   1.494       .  S
C103        O108   1.264       .  A
C103        O106   1.267       .  A
C103       C1404   1.502       .  S
Cd104       O111   2.409       .  S
Cd104       O110   2.477       .  S
Cd104       O109   2.440       .  S
Cd104       O105   2.477       .  S
Cd104       O108   2.457       .  S
Cd104       O106   2.490       .  S
C107        O111   1.263       .  A
C107       C1068   1.480       .  S
O112        C115   1.265       .  A
O112       Cd117   2.469       .  S
C113        O122   1.263       .  A
C113        O118   1.267       .  A
C113       C1040   1.490       .  S
O114        C120   1.267       .  A
O114       Cd117   2.480       .  S
C115        O123   1.267       .  A
C115        C977   1.504       .  S
C116        O121   1.262       .  A
C116        O119   1.268       .  A
C116       C1600   1.499       .  S
Cd117       O124   2.436       .  S
Cd117       O123   2.485       .  S
Cd117       O122   2.427       .  S
Cd117       O118   2.506       .  S
Cd117       O121   2.455       .  S
Cd117       O119   2.512       .  S
C120        O124   1.264       .  A
C120        C928   1.481       .  S
O125        C128   1.264       .  A
O125       Cd130   2.456       .  S
C126        O135   1.263       .  A
C126        O131   1.268       .  A
C126       C1124   1.491       .  S
O127        C133   1.268       .  A
O127       Cd130   2.492       .  S
C128        O136   1.266       .  A
C128        C893   1.502       .  S
C129        O134   1.262       .  A
C129        O132   1.267       .  A
C129       C1180   1.492       .  S
Cd130       O137   2.413       .  S
Cd130       O136   2.512       .  S
Cd130       O135   2.428       .  S
Cd130       O131   2.508       .  S
Cd130       O134   2.453       .  S
Cd130       O132   2.506       .  S
C133        O137   1.264       .  A
C133        C956   1.484       .  S
O138        C141   1.265       .  A
O138       Cd143   2.450       .  S
C139        O148   1.262       .  A
C139        O144   1.268       .  A
C139        C921   1.485       .  S
O140        C146   1.268       .  A
O140       Cd143   2.465       .  S
C141        O149   1.266       .  A
C141        C900   1.493       .  S
C142        O147   1.264       .  A
C142        O145   1.267       .  A
C142       C1348   1.486       .  S
Cd143       O150   2.424       .  S
Cd143       O149   2.491       .  S
Cd143       O148   2.411       .  S
Cd143       O144   2.492       .  S
Cd143       O147   2.435       .  S
Cd143       O145   2.479       .  S
C146        O150   1.265       .  A
C146       C1012   1.482       .  S
C151        C152   1.555       .  S
C151        C157   1.544       .  S
C151        C155   1.552       .  S
C151        C865   1.582       .  S
C152        H159   1.102       .  S
C152        C153   1.373       .  D
C153        C154   1.540       .  S
C153       C1152   1.511       .  S
C154        C158   1.545       .  S
C154        C156   1.538       .  S
C154        H160   1.107       .  S
C155        H161   1.074       .  S
C155        C156   1.366       .  D
C156        C816   1.499       .  S
C157        H162   1.081       .  S
C157        C158   1.374       .  D
C158        C837   1.521       .  S
C163        C164   1.545       .  S
C163        C169   1.554       .  S
C163        C167   1.542       .  S
C163        C872   1.575       .  S
C164        H171   1.085       .  S
C164        C165   1.376       .  D
C165        C166   1.546       .  S
C165       C1544   1.514       .  S
C166        C170   1.543       .  S
C166        C168   1.541       .  S
C166        H172   1.109       .  S
C167        H173   1.086       .  S
C167        C168   1.361       .  D
C168        C753   1.496       .  S
C169        H174   1.084       .  S
C169        C170   1.376       .  D
C170        C781   1.512       .  S
C175        C176   1.546       .  S
C175        C181   1.535       .  S
C175        C179   1.555       .  S
C175        C725   1.567       .  S
C176        H183   1.084       .  S
C176        C177   1.380       .  D
C177        C178   1.545       .  S
C177       C1460   1.529       .  S
C178        C182   1.548       .  S
C178        C180   1.536       .  S
C178        H184   1.097       .  S
C179        H185   1.081       .  S
C179        C180   1.372       .  D
C180        C676   1.513       .  S
C181        H186   1.087       .  S
C181        C182   1.356       .  D
C182        C704   1.486       .  S
C187        C188   1.540       .  S
C187        C193   1.544       .  S
C187        C191   1.550       .  S
C187        C732   1.569       .  S
C188        H195   1.085       .  S
C188        C189   1.375       .  D
C189        C190   1.551       .  S
C189       C1292   1.515       .  S
C190        C194   1.540       .  S
C190        C192   1.543       .  S
C190        H196   1.109       .  S
C191        H197   1.084       .  S
C191        C192   1.370       .  D
C192        C809   1.508       .  S
C193        H198   1.085       .  S
C193        C194   1.366       .  D
C194        C641   1.502       .  S
C199        C200   1.545       .  S
C199        C205   1.542       .  S
C199        C203   1.560       .  S
C199        C613   1.578       .  S
C200        H207   1.086       .  S
C200        C201   1.362       .  D
C201        C202   1.537       .  S
C201        C592   1.497       .  S
C202        C206   1.540       .  S
C202        C204   1.545       .  S
C202        H208   1.108       .  S
C203        H209   1.080       .  S
C203        C204   1.380       .  D
C204       C1201   1.513       .  S
C205        H210   1.086       .  S
C205        C206   1.368       .  D
C206        C669   1.513       .  S
C211        C212   1.561       .  S
C211        C217   1.549       .  S
C211        C215   1.536       .  S
C211        C620   1.578       .  S
C212        H219   1.081       .  S
C212        C213   1.376       .  D
C213        C214   1.542       .  S
C213       C1376   1.520       .  S
C214        C218   1.548       .  S
C214        C216   1.543       .  S
C214        H220   1.105       .  S
C215        H221   1.086       .  S
C215        C216   1.361       .  D
C216        C760   1.494       .  S
C217        H222   1.084       .  S
C217        C218   1.375       .  D
C218        C564   1.523       .  S
O223        C226   1.265       .  A
O223       Cd228   2.461       .  S
C224        O233   1.263       .  A
C224        O229   1.269       .  A
C224        C480   1.489       .  S
O225        C231   1.264       .  A
O225       Cd228   2.455       .  S
C226        O234   1.266       .  A
C226        C501   1.505       .  S
C227        O232   1.269       .  A
C227        O230   1.264       .  A
C227        C529   1.497       .  S
Cd228       O235   2.512       .  S
Cd228       O234   2.485       .  S
Cd228       O233   2.415       .  S
Cd228       O229   2.507       .  S
Cd228       O232   2.506       .  S
Cd228       O230   2.430       .  S
C231        O235   1.267       .  A
C231        C557   1.494       .  S
O236        C239   1.265       .  A
O236       Cd241   2.479       .  S
C237        O246   1.265       .  A
C237        O242   1.267       .  A
C237        C508   1.494       .  S
O238        C244   1.267       .  A
O238       Cd241   2.472       .  S
C239        O247   1.263       .  A
C239        C424   1.485       .  S
C240        O245   1.263       .  A
C240        O243   1.268       .  A
C240        C788   1.487       .  S
Cd241       O248   2.432       .  S
Cd241       O247   2.442       .  S
Cd241       O246   2.457       .  S
Cd241       O242   2.475       .  S
Cd241       O245   2.446       .  S
Cd241       O243   2.510       .  S
C244        O248   1.263       .  A
C244        C452   1.488       .  S
O249        C252   1.266       .  A
O249       Cd254   2.475       .  S
C250        O259   1.265       .  A
C250        O255   1.269       .  A
C250        C361   1.492       .  S
O251        C257   1.262       .  A
O251       Cd254   2.467       .  S
C252        O260   1.264       .  A
C252        C389   1.494       .  S
C253        O258   1.266       .  A
C253        O256   1.265       .  A
C253        C417   1.478       .  S
Cd254       O261   2.503       .  S
Cd254       O260   2.480       .  S
Cd254       O259   2.413       .  S
Cd254       O255   2.505       .  S
Cd254       O258   2.444       .  S
Cd254       O256   2.446       .  S
C257        O261   1.267       .  A
C257        C648   1.495       .  S
O262        C265   1.270       .  A
O262       Cd267   2.505       .  S
C263        O272   1.266       .  A
C263        O268   1.263       .  A
C263        C396   1.504       .  S
O264        C270   1.268       .  A
O264       Cd267   2.491       .  S
C265        O273   1.263       .  A
C265        C536   1.490       .  S
C266        O271   1.264       .  A
C266        O269   1.267       .  A
C266        C844   1.495       .  S
Cd267       O274   2.425       .  S
Cd267       O273   2.414       .  S
Cd267       O272   2.494       .  S
Cd267       O268   2.459       .  S
Cd267       O271   2.454       .  S
Cd267       O269   2.503       .  S
C270        O274   1.263       .  A
C270        C340   1.489       .  S
O275        C278   1.266       .  A
O275       Cd280   2.477       .  S
C276        O285   1.268       .  A
C276        O281   1.263       .  A
C276        C305   1.496       .  S
O277        C283   1.267       .  A
O277       Cd280   2.496       .  S
C278        O286   1.264       .  A
C278        C333   1.486       .  S
C279        O284   1.265       .  A
C279        O282   1.265       .  A
C279        C697   1.491       .  S
Cd280       O287   2.431       .  S
Cd280       O286   2.439       .  S
Cd280       O285   2.511       .  S
Cd280       O281   2.438       .  S
Cd280       O284   2.458       .  S
Cd280       O282   2.477       .  S
C283        O287   1.263       .  A
C283        C473   1.481       .  S
O288        C291   1.267       .  A
O288       Cd293   2.486       .  S
C289        O298   1.266       .  A
C289        O294   1.264       .  A
C289        C312   1.494       .  S
O290        C296   1.268       .  A
O290       Cd293   2.486       .  S
C291        O299   1.264       .  A
C291        C445   1.494       .  S
C292        O297   1.265       .  A
C292        O295   1.265       .  A
C292        C585   1.487       .  S
Cd293       O300   2.411       .  S
Cd293       O299   2.448       .  S
Cd293       O298   2.490       .  S
Cd293       O294   2.454       .  S
Cd293       O297   2.480       .  S
Cd293       O295   2.462       .  S
C296        O300   1.264       .  A
C296        C368   1.483       .  S
C301        C302   1.410       .  A
C301        C306   1.415       .  A
C301        C319   1.450       .  S
C302        C307   1.499   1_556  S
C302        C303   1.410       .  A
C303        C304   1.410       .  A
C303        C308   1.451   1_556  S
C304        C305   1.416       .  A
C304        C320   1.451       .  S
C305        C306   1.419       .  A
C306        C309   1.450       .  S
C307        C310   1.410       .  A
C307        C314   1.410       .  A
C308        N325   1.157       .  T
C309        N327   1.157       .  T
C310        C311   1.416       .  A
C310        C315   1.449       .  S
C311        C312   1.416       .  A
C311        C317   1.449       .  S
C312        C313   1.419       .  A
C313        C314   1.409       .  A
C313        C316   1.452       .  S
C314        C318   1.453   1_554  S
C315        N322   1.157       .  T
C316        N323   1.157       .  T
C317        N321   1.157       .  T
C318        N324   1.157       .  T
C319        N328   1.157       .  T
C320        N326   1.157       .  T
C329        C330   1.409       .  A
C329        C334   1.408       .  A
C329        C347   1.452       .  S
C330        C335   1.494       .  S
C330        C331   1.410       .  A
C331        C332   1.412       .  A
C331        C336   1.450       .  S
C332        C333   1.416       .  A
C332        C348   1.451       .  S
C333        C334   1.415       .  A
C334        C337   1.452       .  S
C335        C338   1.409       .  A
C335        C342   1.410       .  A
C336        N353   1.157       .  T
C337        N355   1.157       .  T
C338        C339   1.407       .  A
C338        C343   1.453       .  S
C339        C340   1.418       .  A
C339        C345   1.453       .  S
C340        C341   1.417       .  A
C341        C342   1.414       .  A
C341        C344   1.451       .  S
C342        C346   1.450       .  S
C343        N350   1.157       .  T
C344        N351   1.157       .  T
C345        N349   1.158       .  T
C346        N352   1.157       .  T
C347        N356   1.157       .  T
C348        N354   1.158       .  T
C357        C358   1.408       .  A
C357        C362   1.406       .  A
C357        C375   1.452       .  S
C358        C363   1.492       .  S
C358        C359   1.409       .  A
C359        C360   1.414       .  A
C359        C364   1.450       .  S
C360        C361   1.418       .  A
C360        C376   1.450       .  S
C361        C362   1.417       .  A
C362        C365   1.452       .  S
C363        C366   1.410       .  A
C363        C370   1.410       .  A
C364        N381   1.157       .  T
C365        N383   1.157       .  T
C366        C367   1.404       .  A
C366        C371   1.453       .  S
C367        C368   1.415       .  A
C367        C373   1.453       .  S
C368        C369   1.415       .  A
C369        C370   1.414       .  A
C369        C372   1.450       .  S
C370        C374   1.449       .  S
C371        N378   1.157       .  T
C372        N379   1.157       .  T
C373        N377   1.157       .  T
C374        N380   1.157       .  T
C375        N384   1.157       .  T
C376        N382   1.157       .  T
C385        C386   1.410       .  A
C385        C390   1.410       .  A
C385        C403   1.452       .  S
C386        C391   1.500       .  S
C386        C387   1.410       .  A
C387        C388   1.415       .  A
C387        C392   1.449       .  S
C388        C389   1.417       .  A
C388        C404   1.450       .  S
C389        C390   1.418       .  A
C390        C393   1.452       .  S
C391        C394   1.410   1_554  A
C391        C398   1.408   1_554  A
C392        N409   1.157       .  T
C393        N411   1.157       .  T
C394        C395   1.413       .  A
C394        C399   1.451   1_556  S
C395        C396   1.421       .  A
C395        C401   1.451       .  S
C396        C397   1.423       .  A
C397        C398   1.413       .  A
C397        C400   1.450       .  S
C398        C402   1.451       .  S
C399        N406   1.157       .  T
C400        N407   1.157       .  T
C401        N405   1.158       .  T
C402        N408   1.157       .  T
C403        N412   1.157   1_554  T
C404        N410   1.157       .  T
C413        C414   1.412       .  A
C413        C418   1.408       .  A
C413        C431   1.451       .  S
C414        C419   1.490       .  S
C414        C415   1.408       .  A
C415        C416   1.408       .  A
C415        C420   1.450       .  S
C416        C417   1.414       .  A
C416        C432   1.452       .  S
C417        C418   1.412       .  A
C418        C421   1.452       .  S
C419        C422   1.407       .  A
C419        C426   1.408       .  A
C420        N437   1.157       .  T
C421        N439   1.158       .  T
C422        C423   1.409       .  A
C422        C427   1.450       .  S
C423        C424   1.415       .  A
C423        C429   1.450       .  S
C424        C425   1.417       .  A
C425        C426   1.409       .  A
C425        C428   1.451       .  S
C426        C430   1.452       .  S
C427        N434   1.157       .  T
C428        N435   1.157       .  T
C429        N433   1.157       .  T
C430        N436   1.157       .  T
C431        N440   1.157       .  T
C432        N438   1.157       .  T
C441        C442   1.408       .  A
C441        C446   1.411       .  A
C441        C459   1.451       .  S
C442        C447   1.493       .  S
C442        C443   1.407       .  A
C443        C444   1.410       .  A
C443        C448   1.451       .  S
C444        C445   1.420       .  A
C444        C460   1.451       .  S
C445        C446   1.419       .  A
C446        C449   1.450       .  S
C447        C450   1.409       .  A
C447        C454   1.409       .  A
C448        N465   1.157       .  T
C449        N467   1.157       .  T
C450        C451   1.412       .  A
C450        C455   1.450       .  S
C451        C452   1.417       .  A
C451        C457   1.451       .  S
C452        C453   1.418       .  A
C453        C454   1.407       .  A
C453        C456   1.452       .  S
C454        C458   1.452       .  S
C455        N462   1.157       .  T
C456        N463   1.157       .  T
C457        N461   1.157       .  T
C458        N464   1.157       .  T
C459        N468   1.157       .  T
C460        N466   1.157       .  T
C469        C470   1.409       .  A
C469        C474   1.408       .  A
C469        C487   1.450       .  S
C470        C475   1.495       .  S
C470        C471   1.412       .  A
C471        C472   1.412       .  A
C471        C476   1.451       .  S
C472        C473   1.413       .  A
C472        C488   1.451       .  S
C473        C474   1.412       .  A
C474        C477   1.451       .  S
C475        C478   1.410       .  A
C475        C482   1.410       .  A
C476        N493   1.157       .  T
C477        N495   1.157       .  T
C478        C479   1.406       .  A
C478        C483   1.453       .  S
C479        C480   1.415       .  A
C479        C485   1.451       .  S
C480        C481   1.417       .  A
C481        C482   1.415       .  A
C481        C484   1.450       .  S
C482        C486   1.450       .  S
C483        N490   1.157       .  T
C484        N491   1.157       .  T
C485        N489   1.157       .  T
C486        N492   1.157       .  T
C487        N496   1.157       .  T
C488        N494   1.157       .  T
C497        C498   1.411   1_556  A
C497        C502   1.412       .  A
C497        C515   1.452   1_556  S
C498        C503   1.502       .  S
C498        C499   1.410   1_554  A
C499        C500   1.414       .  A
C499        C504   1.451       .  S
C500        C501   1.423       .  A
C500        C516   1.451       .  S
C501        C502   1.420       .  A
C502        C505   1.451       .  S
C503        C506   1.411       .  A
C503        C510   1.411       .  A
C504        N521   1.157       .  T
C505        N523   1.157       .  T
C506        C507   1.411       .  A
C506        C511   1.453       .  S
C507        C508   1.419       .  A
C507        C513   1.452       .  S
C508        C509   1.417       .  A
C509        C510   1.414       .  A
C509        C512   1.450       .  S
C510        C514   1.450       .  S
C511        N518   1.157   1_554  T
C512        N519   1.157       .  T
C513        N517   1.157       .  T
C514        N520   1.157       .  T
C515        N524   1.157       .  T
C516        N522   1.158       .  T
C525        C526   1.411       .  A
C525        C530   1.415       .  A
C525        C543   1.450       .  S
C526        C531   1.500       .  S
C526        C527   1.411       .  A
C527        C528   1.408       .  A
C527        C532   1.452       .  S
C528        C529   1.418       .  A
C528        C544   1.452       .  S
C529        C530   1.417       .  A
C530        C533   1.449       .  S
C531        C534   1.412       .  A
C531        C538   1.410       .  A
C532        N549   1.157       .  T
C533        N551   1.157       .  T
C534        C535   1.414       .  A
C534        C539   1.449       .  S
C535        C536   1.416       .  A
C535        C541   1.450       .  S
C536        C537   1.416       .  A
C537        C538   1.408       .  A
C537        C540   1.451       .  S
C538        C542   1.452       .  S
C539        N546   1.157       .  T
C540        N547   1.157       .  T
C541        N545   1.157       .  T
C542        N548   1.157       .  T
C543        N552   1.157       .  T
C544        N550   1.157       .  T
C553        C554   1.409       .  A
C553        C558   1.411       .  A
C553        C571   1.451       .  S
C554        C559   1.502       .  S
C554        C555   1.412       .  A
C555        C556   1.417       .  A
C555        C560   1.450       .  S
C556        C557   1.416       .  A
C556        C572   1.449       .  S
C557        C558   1.418       .  A
C558        C561   1.452       .  S
C559        C562   1.406       .  A
C559        C566   1.406       .  A
C560        N577   1.157       .  T
C561        N579   1.157       .  T
C562        C563   1.415       .  A
C562        C567   1.451       .  S
C563        C564   1.427       .  A
C563        C569   1.451       .  S
C564        C565   1.427       .  A
C565        C566   1.415       .  A
C565        C568   1.447       .  S
C566        C570   1.453       .  S
C567        N574   1.157       .  T
C568        N575   1.158       .  T
C569        N573   1.157       .  T
C570        N576   1.157       .  T
C571        N580   1.157       .  T
C572        N578   1.157       .  T
C581        C582   1.411       .  A
C581        C586   1.409       .  A
C581        C599   1.451       .  S
C582        C587   1.502       .  S
C582        C583   1.414       .  A
C583        C584   1.415       .  A
C583        C588   1.450       .  S
C584        C585   1.413       .  A
C584        C600   1.450       .  S
C585        C586   1.416       .  A
C586        C589   1.452       .  S
C587        C590   1.412       .  A
C587        C594   1.411       .  A
C588        N605   1.157       .  T
C589        N607   1.157       .  T
C590        C591   1.414       .  A
C590        C595   1.450       .  S
C591        C592   1.417       .  A
C591        C597   1.451       .  S
C592        C593   1.414       .  A
C593        C594   1.411       .  A
C593        C596   1.447       .  S
C594        C598   1.452       .  S
C595        N602   1.157       .  T
C596        N603   1.156       .  T
C597        N601   1.157       .  T
C598        N604   1.157       .  T
C599        N608   1.157       .  T
C600        N606   1.157       .  T
C609        C610   1.407       .  A
C609        C614   1.426       .  A
C609        C627   1.452       .  S
C610        C615   1.517       .  S
C610        C611   1.405       .  A
C611        C612   1.416       .  A
C611        C616   1.454       .  S
C612        C613   1.438       .  A
C612        C628   1.452       .  S
C613        C614   1.434       .  A
C614        C617   1.445       .  S
C615        C618   1.406       .  A
C615        C622   1.407       .  A
C616        N633   1.157       .  T
C617        N635   1.157       .  T
C618        C619   1.417       .  A
C618        C623   1.453       .  S
C619        C620   1.434       .  A
C619        C625   1.450       .  S
C620        C621   1.433       .  A
C621        C622   1.424       .  A
C621        C624   1.444       .  S
C622        C626   1.452       .  S
C623        N630   1.157       .  T
C624        N631   1.156       .  T
C625        N629   1.157       .  T
C626        N632   1.157       .  T
C627        N636   1.157       .  T
C628        N634   1.158       .  T
C637        C638   1.410       .  A
C637        C642   1.411       .  A
C637        C655   1.451       .  S
C638        C643   1.502       .  S
C638        C639   1.410       .  A
C639        C640   1.416       .  A
C639        C644   1.450       .  S
C640        C641   1.417       .  A
C640        C656   1.449       .  S
C641        C642   1.420       .  A
C642        C645   1.452       .  S
C643        C646   1.411       .  A
C643        C650   1.410       .  A
C644        N661   1.157       .  T
C645        N663   1.157       .  T
C646        C647   1.415       .  A
C646        C651   1.450       .  S
C647        C648   1.418       .  A
C647        C653   1.451       .  S
C648        C649   1.417       .  A
C649        C650   1.412       .  A
C649        C652   1.451       .  S
C650        C654   1.451       .  S
C651        N658   1.157       .  T
C652        N659   1.157       .  T
C653        N657   1.157       .  T
C654        N660   1.157       .  T
C655        N664   1.157       .  T
C656        N662   1.157       .  T
C665        C666   1.404       .  A
C665        C670   1.411       .  A
C665        C683   1.453       .  S
C666        C671   1.498       .  S
C666        C667   1.406       .  A
C667        C668   1.414       .  A
C667        C672   1.451       .  S
C668        C669   1.424       .  A
C668        C684   1.449       .  S
C669        C670   1.423       .  A
C670        C673   1.444       .  S
C671        C674   1.407       .  A
C671        C678   1.406       .  A
C672        N689   1.157       .  T
C673        N691   1.155       .  T
C674        C675   1.414       .  A
C674        C679   1.451       .  S
C675        C676   1.420       .  A
C675        C681   1.449       .  S
C676        C677   1.424       .  A
C677        C678   1.412       .  A
C677        C680   1.446       .  S
C678        C682   1.453       .  S
C679        N686   1.157       .  T
C680        N687   1.157       .  T
C681        N685   1.157       .  T
C682        N688   1.157       .  T
C683        N692   1.157       .  T
C684        N690   1.157       .  T
C693        C694   1.410       .  A
C693        C698   1.410       .  A
C693        C711   1.451       .  S
C694        C699   1.497       .  S
C694        C695   1.410       .  A
C695        C696   1.413       .  A
C695        C700   1.451       .  S
C696        C697   1.419       .  A
C696        C712   1.452       .  S
C697        C698   1.415       .  A
C698        C701   1.450       .  S
C699        C702   1.413       .  A
C699        C706   1.411       .  A
C700        N717   1.157       .  T
C701        N719   1.157       .  T
C702        C703   1.410       .  A
C702        C707   1.451       .  S
C703        C704   1.411       .  A
C703        C709   1.451       .  S
C704        C705   1.411       .  A
C705        C706   1.411       .  A
C705        C708   1.450       .  S
C706        C710   1.449       .  S
C707        N714   1.157       .  T
C708        N715   1.157       .  T
C709        N713   1.157       .  T
C710        N716   1.157       .  T
C711        N720   1.157       .  T
C712        N718   1.158       .  T
C721        C722   1.411       .  A
C721        C726   1.418       .  A
C721        C739   1.450       .  S
C722        C727   1.515       .  S
C722        C723   1.411       .  A
C723        C724   1.418       .  A
C723        C728   1.452       .  S
C724        C725   1.425       .  A
C724        C740   1.446       .  S
C725        C726   1.428       .  A
C726        C729   1.451       .  S
C727        C730   1.410       .  A
C727        C734   1.411       .  A
C728        N745   1.157       .  T
C729        N747   1.157       .  T
C730        C731   1.419       .  A
C730        C735   1.451       .  S
C731        C732   1.428       .  A
C731        C737   1.449       .  S
C732        C733   1.425       .  A
C733        C734   1.418       .  A
C733        C736   1.447       .  S
C734        C738   1.451       .  S
C735        N742   1.157       .  T
C736        N743   1.157       .  T
C737        N741   1.157       .  T
C738        N744   1.157       .  T
C739        N748   1.157       .  T
C740        N746   1.157       .  T
C749        C750   1.414       .  A
C749        C754   1.414       .  A
C749        C767   1.451       .  S
C750        C755   1.502       .  S
C750        C751   1.411       .  A
C751        C752   1.411       .  A
C751        C756   1.451       .  S
C752        C753   1.418       .  A
C752        C768   1.452       .  S
C753        C754   1.412       .  A
C754        C757   1.449       .  S
C755        C758   1.411       .  A
C755        C762   1.412       .  A
C756        N773   1.157       .  T
C757        N775   1.157       .  T
C758        C759   1.412       .  A
C758        C763   1.451       .  S
C759        C760   1.411       .  A
C759        C765   1.446       .  S
C760        C761   1.415       .  A
C761        C762   1.413       .  A
C761        C764   1.450       .  S
C762        C766   1.451       .  S
C763        N770   1.157       .  T
C764        N771   1.157       .  T
C765        N769   1.156       .  T
C766        N772   1.157       .  T
C767        N776   1.157       .  T
C768        N774   1.157       .  T
C777        C778   1.408       .  A
C777        C782   1.413       .  A
C777        C795   1.450       .  S
C778        C783   1.502       .  S
C778        C779   1.408       .  A
C779        C780   1.415       .  A
C779        C784   1.452       .  S
C780        C781   1.422       .  A
C780        C796   1.446       .  S
C781        C782   1.419       .  A
C782        C785   1.449       .  S
C783        C786   1.411       .  A
C783        C790   1.413       .  A
C784        N801   1.157       .  T
C785        N803   1.157       .  T
C786        C787   1.410       .  A
C786        C791   1.451       .  S
C787        C788   1.415       .  A
C787        C793   1.452       .  S
C788        C789   1.412       .  A
C789        C790   1.416       .  A
C789        C792   1.449       .  S
C790        C794   1.449       .  S
C791        N798   1.157       .  T
C792        N799   1.157       .  T
C793        N797   1.157       .  T
C794        N800   1.157       .  T
C795        N804   1.157       .  T
C796        N802   1.157       .  T
C805        C806   1.410       .  A
C805        C810   1.414       .  A
C805        C823   1.452       .  S
C806        C811   1.507       .  S
C806        C807   1.412       .  A
C807        C808   1.415       .  A
C807        C812   1.450       .  S
C808        C809   1.417       .  A
C808        C824   1.450       .  S
C809        C810   1.417       .  A
C810        C813   1.445       .  S
C811        C814   1.413       .  A
C811        C818   1.413       .  A
C812        N829   1.157       .  T
C813        N831   1.156       .  T
C814        C815   1.414       .  A
C814        C819   1.450       .  S
C815        C816   1.416       .  A
C815        C821   1.451       .  S
C816        C817   1.412       .  A
C817        C818   1.414       .  A
C817        C820   1.446       .  S
C818        C822   1.451       .  S
C819        N826   1.157       .  T
C820        N827   1.156       .  T
C821        N825   1.157       .  T
C822        N828   1.157       .  T
C823        N832   1.157       .  T
C824        N830   1.157       .  T
C833        C834   1.407       .  A
C833        C838   1.416       .  A
C833        C851   1.453       .  S
C834        C839   1.504       .  S
C834        C835   1.407       .  A
C835        C836   1.415       .  A
C835        C840   1.451       .  S
C836        C837   1.426       .  A
C836        C852   1.450       .  S
C837        C838   1.426       .  A
C838        C841   1.446       .  S
C839        C842   1.413       .  A
C839        C846   1.410       .  A
C840        N857   1.157       .  T
C841        N859   1.157       .  T
C842        C843   1.417       .  A
C842        C847   1.450       .  S
C843        C844   1.415       .  A
C843        C849   1.450       .  S
C844        C845   1.419       .  A
C845        C846   1.411       .  A
C845        C848   1.452       .  S
C846        C850   1.451       .  S
C847        N854   1.157       .  T
C848        N855   1.157       .  T
C849        N853   1.157       .  T
C850        N856   1.157       .  T
C851        N860   1.157       .  T
C852        N858   1.157       .  T
C861        C862   1.409       .  A
C861        C866   1.425       .  A
C861        C879   1.451       .  S
C862        C867   1.520       .  S
C862        C863   1.406       .  A
C863        C864   1.421       .  A
C863        C868   1.454       .  S
C864        C865   1.436       .  A
C864        C880   1.447       .  S
C865        C866   1.435       .  A
C866        C869   1.450       .  S
C867        C870   1.408       .  A
C867        C874   1.411       .  A
C868        N885   1.157       .  T
C869        N887   1.158       .  T
C870        C871   1.421       .  A
C870        C875   1.450       .  S
C871        C872   1.426       .  A
C871        C877   1.445       .  S
C872        C873   1.430       .  A
C873        C874   1.422       .  A
C873        C876   1.451       .  S
C874        C878   1.450       .  S
C875        N882   1.157       .  T
C876        N883   1.157       .  T
C877        N881   1.156       .  T
C878        N884   1.157       .  T
C879        N888   1.157       .  T
C880        N886   1.157       .  T
C889        C890   1.409       .  A
C889        C894   1.412       .  A
C889        C907   1.450   1_556  S
C890        C895   1.500   1_556  S
C890        C891   1.409       .  A
C891        C892   1.415       .  A
C891        C896   1.450       .  S
C892        C893   1.421       .  A
C892        C908   1.450       .  S
C893        C894   1.419       .  A
C894        C897   1.451       .  S
C895        C898   1.410       .  A
C895        C902   1.410       .  A
C896        N913   1.157       .  T
C897        N915   1.157       .  T
C898        C899   1.417       .  A
C898        C903   1.449       .  S
C899        C900   1.417       .  A
C899        C905   1.449       .  S
C900        C901   1.418       .  A
C901        C902   1.407       .  A
C901        C904   1.453       .  S
C902        C906   1.451       .  S
C903        N910   1.157       .  T
C904        N911   1.158       .  T
C905        N909   1.157       .  T
C906        N912   1.156   1_554  T
C907        N916   1.157       .  T
C908        N914   1.157       .  T
C917        C918   1.410       .  A
C917        C922   1.404       .  A
C917        C935   1.451       .  S
C918        C923   1.492       .  S
C918        C919   1.409       .  A
C919        C920   1.414       .  A
C919        C924   1.449       .  S
C920        C921   1.417       .  A
C920        C936   1.450       .  S
C921        C922   1.415       .  A
C922        C925   1.454       .  S
C923        C926   1.410       .  A
C923        C930   1.408       .  A
C924        N941   1.157       .  T
C925        N943   1.158       .  T
C926        C927   1.410       .  A
C926        C931   1.450       .  S
C927        C928   1.414       .  A
C927        C933   1.451       .  S
C928        C929   1.414       .  A
C929        C930   1.409       .  A
C929        C932   1.450       .  S
C930        C934   1.450       .  S
C931        N938   1.157       .  T
C932        N939   1.157       .  T
C933        N937   1.157       .  T
C934        N940   1.157       .  T
C935        N944   1.156       .  T
C936        N942   1.157       .  T
C945        C946   1.407       .  A
C945        C950   1.412       .  A
C945        C963   1.450       .  S
C946        C951   1.492       .  S
C946        C947   1.409       .  A
C947        C948   1.409       .  A
C947        C952   1.453       .  S
C948        C949   1.421       .  A
C948        C964   1.452       .  S
C949        C950   1.418       .  A
C950        C953   1.450       .  S
C951        C954   1.409       .  A
C951        C958   1.410       .  A
C952        N969   1.157       .  T
C953        N971   1.157       .  T
C954        C955   1.407       .  A
C954        C959   1.451       .  S
C955        C956   1.413       .  A
C955        C961   1.450       .  S
C956        C957   1.414       .  A
C957        C958   1.411       .  A
C957        C960   1.450       .  S
C958        C962   1.450       .  S
C959        N966   1.157       .  T
C960        N967   1.157       .  T
C961        N965   1.156       .  T
C962        N968   1.157       .  T
C963        N972   1.157       .  T
C964        N970   1.158       .  T
C973        C974   1.409       .  A
C973        C978   1.414       .  A
C973        C991   1.451       .  S
C974        C979   1.501       .  S
C974        C975   1.408       .  A
C975        C976   1.414       .  A
C975        C980   1.451       .  S
C976        C977   1.423       .  A
C976        C992   1.451       .  S
C977        C978   1.421       .  A
C978        C981   1.451       .  S
C979        C982   1.411   1_554  A
C979        C986   1.411   1_554  A
C980        N997   1.157       .  T
C981        N999   1.157       .  T
C982        C983   1.415       .  A
C982        C987   1.449       .  S
C983        C984   1.416       .  A
C983        C989   1.450       .  S
C984        C985   1.418       .  A
C985        C986   1.411       .  A
C985        C988   1.452       .  S
C986        C990   1.452   1_556  S
C987        N994   1.157       .  T
C988        N995   1.158       .  T
C989        N993   1.157       .  T
C990        N996   1.157       .  T
C991       N1000   1.157   1_554  T
C992        N998   1.157       .  T
C1001      C1002   1.408       .  A
C1001      C1006   1.406       .  A
C1001      C1019   1.452       .  S
C1002      C1007   1.490       .  S
C1002      C1003   1.409       .  A
C1003      C1004   1.412       .  A
C1003      C1008   1.450       .  S
C1004      C1005   1.415       .  A
C1004      C1020   1.450       .  S
C1005      C1006   1.416       .  A
C1006      C1009   1.451       .  S
C1007      C1010   1.410       .  A
C1007      C1014   1.408       .  A
C1008      N1025   1.157       .  T
C1009      N1027   1.157       .  T
C1010      C1011   1.408       .  A
C1010      C1015   1.452       .  S
C1011      C1012   1.415       .  A
C1011      C1017   1.451       .  S
C1012      C1013   1.416       .  A
C1013      C1014   1.409       .  A
C1013      C1016   1.452       .  S
C1014      C1018   1.450       .  S
C1015      N1022   1.157       .  T
C1016      N1023   1.157       .  T
C1017      N1021   1.157       .  T
C1018      N1024   1.157       .  T
C1019      N1028   1.157       .  T
C1020      N1026   1.157       .  T
C1029      C1030   1.409       .  A
C1029      C1034   1.410       .  A
C1029      C1047   1.451       .  S
C1030      C1035   1.496       .  S
C1030      C1031   1.410       .  A
C1031      C1032   1.412       .  A
C1031      C1036   1.450       .  S
C1032      C1033   1.417       .  A
C1032      C1048   1.451       .  S
C1033      C1034   1.418       .  A
C1034      C1037   1.451       .  S
C1035      C1038   1.411       .  A
C1035      C1042   1.409       .  A
C1036      N1053   1.157       .  T
C1037      N1055   1.157       .  T
C1038      C1039   1.415       .  A
C1038      C1043   1.449       .  S
C1039      C1040   1.416       .  A
C1039      C1045   1.450       .  S
C1040      C1041   1.416       .  A
C1041      C1042   1.406       .  A
C1041      C1044   1.451       .  S
C1042      C1046   1.451       .  S
C1043      N1050   1.157       .  T
C1044      N1051   1.156       .  T
C1045      N1049   1.157       .  T
C1046      N1052   1.157       .  T
C1047      N1056   1.157       .  T
C1048      N1054   1.157       .  T
C1057      C1058   1.408       .  A
C1057      C1062   1.411       .  A
C1057      C1075   1.450       .  S
C1058      C1063   1.488       .  S
C1058      C1059   1.408       .  A
C1059      C1060   1.406       .  A
C1059      C1064   1.453       .  S
C1060      C1061   1.417       .  A
C1060      C1076   1.452       .  S
C1061      C1062   1.416       .  A
C1062      C1065   1.450       .  S
C1063      C1066   1.408       .  A
C1063      C1070   1.409       .  A
C1064      N1081   1.157       .  T
C1065      N1083   1.157       .  T
C1066      C1067   1.405       .  A
C1066      C1071   1.452       .  S
C1067      C1068   1.415       .  A
C1067      C1073   1.451       .  S
C1068      C1069   1.414       .  A
C1069      C1070   1.409       .  A
C1069      C1072   1.451       .  S
C1070      C1074   1.450       .  S
C1071      N1078   1.157       .  T
C1072      N1079   1.157       .  T
C1073      N1077   1.157       .  T
C1074      N1080   1.157       .  T
C1075      N1084   1.157       .  T
C1076      N1082   1.157       .  T
C1085      C1086   1.412       .  A
C1085      C1090   1.415       .  A
C1085      C1103   1.450       .  S
C1086      C1091   1.503   1_556  S
C1086      C1087   1.412       .  A
C1087      C1088   1.410       .  A
C1087      C1092   1.452   1_556  S
C1088      C1089   1.418       .  A
C1088      C1104   1.453       .  S
C1089      C1090   1.416       .  A
C1090      C1093   1.450       .  S
C1091      C1094   1.411       .  A
C1091      C1098   1.410       .  A
C1092      N1109   1.157       .  T
C1093      N1111   1.157       .  T
C1094      C1095   1.413       .  A
C1094      C1099   1.451       .  S
C1095      C1096   1.419       .  A
C1095      C1101   1.451       .  S
C1096      C1097   1.422       .  A
C1097      C1098   1.414       .  A
C1097      C1100   1.450       .  S
C1098      C1102   1.451       .  S
C1099      N1106   1.157   1_554  T
C1100      N1107   1.157       .  T
C1101      N1105   1.157       .  T
C1102      N1108   1.157       .  T
C1103      N1112   1.157       .  T
C1104      N1110   1.158       .  T
C1113      C1114   1.412       .  A
C1113      C1118   1.409       .  A
C1113      C1131   1.451       .  S
C1114      C1119   1.493       .  S
C1114      C1115   1.409       .  A
C1115      C1116   1.409       .  A
C1115      C1120   1.450       .  S
C1116      C1117   1.414       .  A
C1116      C1132   1.452       .  S
C1117      C1118   1.413       .  A
C1118      C1121   1.451       .  S
C1119      C1122   1.409       .  A
C1119      C1126   1.409       .  A
C1120      N1137   1.157       .  T
C1121      N1139   1.157       .  T
C1122      C1123   1.407       .  A
C1122      C1127   1.452       .  S
C1123      C1124   1.419       .  A
C1123      C1129   1.453       .  S
C1124      C1125   1.418       .  A
C1125      C1126   1.413       .  A
C1125      C1128   1.450       .  S
C1126      C1130   1.450       .  S
C1127      N1134   1.157       .  T
C1128      N1135   1.157       .  T
C1129      N1133   1.158       .  T
C1130      N1136   1.157       .  T
C1131      N1140   1.157       .  T
C1132      N1138   1.158       .  T
C1141      C1142   1.408       .  A
C1141      C1146   1.417       .  A
C1141      C1159   1.451       .  S
C1142      C1147   1.506   1_655  S
C1142      C1143   1.409       .  A
C1143      C1144   1.415       .  A
C1143      C1148   1.452   1_655  S
C1144      C1145   1.422       .  A
C1144      C1160   1.448       .  S
C1145      C1146   1.426       .  A
C1146      C1149   1.451       .  S
C1147      C1150   1.411       .  A
C1147      C1154   1.408       .  A
C1148      N1165   1.157       .  T
C1149      N1167   1.157       .  T
C1150      C1151   1.419       .  A
C1150      C1155   1.450       .  S
C1151      C1152   1.422       .  A
C1151      C1157   1.450       .  S
C1152      C1153   1.418       .  A
C1153      C1154   1.412       .  A
C1153      C1156   1.448       .  S
C1154      C1158   1.452       .  S
C1155      N1162   1.157       .  T
C1156      N1163   1.156       .  T
C1157      N1161   1.157       .  T
C1158      N1164   1.157       .  T
C1159      N1168   1.157       .  T
C1160      N1166   1.157       .  T
C1169      C1170   1.406       .  A
C1169      C1174   1.415       .  A
C1169      C1187   1.453       .  S
C1170      C1175   1.502       .  S
C1170      C1171   1.408       .  A
C1171      C1172   1.414       .  A
C1171      C1176   1.450       .  S
C1172      C1173   1.421       .  A
C1172      C1188   1.450       .  S
C1173      C1174   1.428       .  A
C1174      C1177   1.448       .  S
C1175      C1178   1.411       .  A
C1175      C1182   1.412       .  A
C1176      N1193   1.157       .  T
C1177      N1195   1.158       .  T
C1178      C1179   1.411       .  A
C1178      C1183   1.452       .  S
C1179      C1180   1.418       .  A
C1179      C1185   1.453       .  S
C1180      C1181   1.414       .  A
C1181      C1182   1.415       .  A
C1181      C1184   1.449       .  S
C1182      C1186   1.449       .  S
C1183      N1190   1.157       .  T
C1184      N1191   1.157       .  T
C1185      N1189   1.158       .  T
C1186      N1192   1.157       .  T
C1187      N1196   1.157       .  T
C1188      N1194   1.157       .  T
C1197      C1198   1.408       .  A
C1197      C1202   1.414       .  A
C1197      C1215   1.452       .  S
C1198      C1203   1.507   1_565  S
C1198      C1199   1.410       .  A
C1199      C1200   1.418       .  A
C1199      C1204   1.450       .  S
C1200      C1201   1.423       .  A
C1200      C1216   1.449       .  S
C1201      C1202   1.422       .  A
C1202      C1205   1.446       .  S
C1203      C1206   1.412       .  A
C1203      C1210   1.410       .  A
C1204      N1221   1.157       .  T
C1205      N1223   1.156       .  T
C1206      C1207   1.415       .  A
C1206      C1211   1.451       .  S
C1207      C1208   1.417       .  A
C1207      C1213   1.448       .  S
C1208      C1209   1.421       .  A
C1209      C1210   1.415       .  A
C1209      C1212   1.450       .  S
C1210      C1214   1.450       .  S
C1211      N1218   1.157   1_545  T
C1212      N1219   1.157       .  T
C1213      N1217   1.157       .  T
C1214      N1220   1.157       .  T
C1215      N1224   1.157   1_565  T
C1216      N1222   1.157       .  T
C1225      C1226   1.409       .  A
C1225      C1230   1.415       .  A
C1225      C1243   1.451       .  S
C1226      C1231   1.506       .  S
C1226      C1227   1.409       .  A
C1227      C1228   1.416       .  A
C1227      C1232   1.450       .  S
C1228      C1229   1.423       .  A
C1228      C1244   1.451       .  S
C1229      C1230   1.423       .  A
C1230      C1233   1.451       .  S
C1231      C1234   1.406       .  A
C1231      C1238   1.406       .  A
C1232      N1249   1.157       .  T
C1233      N1251   1.158       .  T
C1234      C1235   1.418       .  A
C1234      C1239   1.451       .  S
C1235      C1236   1.426       .  A
C1235      C1241   1.446       .  S
C1236      C1237   1.429       .  A
C1237      C1238   1.415       .  A
C1237      C1240   1.448       .  S
C1238      C1242   1.453       .  S
C1239      N1246   1.157       .  T
C1240      N1247   1.157       .  T
C1241      N1245   1.156       .  T
C1242      N1248   1.157       .  T
C1243      N1252   1.157       .  T
C1244      N1250   1.157       .  T
C1253      C1254   1.407       .  A
C1253      C1258   1.416       .  A
C1253      C1271   1.452       .  S
C1254      C1259   1.508       .  S
C1254      C1255   1.407       .  A
C1255      C1256   1.416       .  A
C1255      C1260   1.452       .  S
C1256      C1257   1.431       .  A
C1256      C1272   1.451       .  S
C1257      C1258   1.431       .  A
C1258      C1261   1.450       .  S
C1259      C1262   1.404       .  A
C1259      C1266   1.406       .  A
C1260      N1277   1.157       .  T
C1261      N1279   1.158       .  T
C1262      C1263   1.412       .  A
C1262      C1267   1.454       .  S
C1263      C1264   1.437       .  A
C1263      C1269   1.453       .  S
C1264      C1265   1.432       .  A
C1265      C1266   1.422       .  A
C1265      C1268   1.445       .  S
C1266      C1270   1.452       .  S
C1267      N1274   1.157       .  T
C1268      N1275   1.158       .  T
C1269      N1273   1.158       .  T
C1270      N1276   1.157       .  T
C1271      N1280   1.157       .  T
C1272      N1278   1.158       .  T
C1281      C1282   1.408       .  A
C1281      C1286   1.415       .  A
C1281      C1299   1.452       .  S
C1282      C1287   1.507   1_655  S
C1282      C1283   1.410       .  A
C1283      C1284   1.418       .  A
C1283      C1288   1.450       .  S
C1284      C1285   1.421       .  A
C1284      C1300   1.449       .  S
C1285      C1286   1.422       .  A
C1286      C1289   1.449       .  S
C1287      C1290   1.408       .  A
C1287      C1294   1.409       .  A
C1288      N1305   1.157       .  T
C1289      N1307   1.157       .  T
C1290      C1291   1.417       .  A
C1290      C1295   1.451       .  S
C1291      C1292   1.424       .  A
C1291      C1297   1.448       .  S
C1292      C1293   1.421       .  A
C1293      C1294   1.416       .  A
C1293      C1296   1.448       .  S
C1294      C1298   1.452       .  S
C1295      N1302   1.157       .  T
C1296      N1303   1.157       .  T
C1297      N1301   1.157       .  T
C1298      N1304   1.157   1_455  T
C1299      N1308   1.157   1_655  T
C1300      N1306   1.157       .  T
C1309      C1310   1.409       .  A
C1309      C1314   1.410       .  A
C1309      C1327   1.450       .  S
C1310      C1315   1.494       .  S
C1310      C1311   1.411       .  A
C1311      C1312   1.411       .  A
C1311      C1316   1.451       .  S
C1312      C1313   1.410       .  A
C1312      C1328   1.448       .  S
C1313      C1314   1.415       .  A
C1314      C1317   1.451       .  S
C1315      C1318   1.412       .  A
C1315      C1322   1.409       .  A
C1316      N1333   1.157       .  T
C1317      N1335   1.157       .  T
C1318      C1319   1.411       .  A
C1318      C1323   1.450       .  S
C1319      C1320   1.411       .  A
C1319      C1325   1.451       .  S
C1320      C1321   1.414       .  A
C1321      C1322   1.408       .  A
C1321      C1324   1.451       .  S
C1322      C1326   1.451       .  S
C1323      N1330   1.157       .  T
C1324      N1331   1.157       .  T
C1325      N1329   1.157       .  T
C1326      N1332   1.157       .  T
C1327      N1336   1.157       .  T
C1328      N1334   1.156       .  T
C1337      C1338   1.407       .  A
C1337      C1342   1.413       .  A
C1337      C1355   1.454       .  S
C1338      C1343   1.500       .  S
C1338      C1339   1.407       .  A
C1339      C1340   1.413       .  A
C1339      C1344   1.452       .  S
C1340      C1341   1.426       .  A
C1340      C1356   1.451       .  S
C1341      C1342   1.426       .  A
C1342      C1345   1.446       .  S
C1343      C1346   1.410       .  A
C1343      C1350   1.414       .  A
C1344      N1361   1.157       .  T
C1345      N1363   1.157       .  T
C1346      C1347   1.408       .  A
C1346      C1351   1.452       .  S
C1347      C1348   1.418       .  A
C1347      C1353   1.452       .  S
C1348      C1349   1.411       .  A
C1349      C1350   1.413       .  A
C1349      C1352   1.450       .  S
C1350      C1354   1.450       .  S
C1351      N1358   1.157       .  T
C1352      N1359   1.157       .  T
C1353      N1357   1.157       .  T
C1354      N1360   1.157       .  T
C1355      N1364   1.157       .  T
C1356      N1362   1.157       .  T
C1365      C1366   1.418       .  A
C1365      C1370   1.416       .  A
C1365      C1383   1.449       .  S
C1366      C1371   1.520       .  S
C1366      C1367   1.419       .  A
C1367      C1368   1.419       .  A
C1367      C1372   1.450       .  S
C1368      C1369   1.413       .  A
C1368      C1384   1.450       .  S
C1369      C1370   1.409       .  A
C1370      C1373   1.450       .  S
C1371      C1374   1.414       .  A
C1371      C1378   1.415       .  A
C1372      N1389   1.157       .  T
C1373      N1391   1.157       .  T
C1374      C1375   1.417       .  A
C1374      C1379   1.451       .  S
C1375      C1376   1.420       .  A
C1375      C1381   1.447       .  S
C1376      C1377   1.420       .  A
C1377      C1378   1.421       .  A
C1377      C1380   1.447       .  S
C1378      C1382   1.451       .  S
C1379      N1386   1.157       .  T
C1380      N1387   1.157       .  T
C1381      N1385   1.156       .  T
C1382      N1388   1.157       .  T
C1383      N1392   1.157       .  T
C1384      N1390   1.157       .  T
C1393      C1394   1.406       .  A
C1393      C1398   1.416       .  A
C1393      C1411   1.451       .  S
C1394      C1399   1.501       .  S
C1394      C1395   1.408       .  A
C1395      C1396   1.412       .  A
C1395      C1400   1.452       .  S
C1396      C1397   1.423       .  A
C1396      C1412   1.450       .  S
C1397      C1398   1.422       .  A
C1398      C1401   1.445       .  S
C1399      C1402   1.409       .  A
C1399      C1406   1.408       .  A
C1400      N1417   1.157       .  T
C1401      N1419   1.156       .  T
C1402      C1403   1.413       .  A
C1402      C1407   1.450       .  S
C1403      C1404   1.420       .  A
C1403      C1409   1.451       .  S
C1404      C1405   1.421       .  A
C1405      C1406   1.413       .  A
C1405      C1408   1.450       .  S
C1406      C1410   1.451       .  S
C1407      N1414   1.157       .  T
C1408      N1415   1.157       .  T
C1409      N1413   1.157       .  T
C1410      N1416   1.157       .  T
C1411      N1420   1.157       .  T
C1412      N1418   1.157       .  T
C1421      C1422   1.410       .  A
C1421      C1426   1.420       .  A
C1421      C1439   1.450       .  S
C1422      C1427   1.515       .  S
C1422      C1423   1.408       .  A
C1423      C1424   1.419       .  A
C1423      C1428   1.450       .  S
C1424      C1425   1.429       .  A
C1424      C1440   1.449       .  S
C1425      C1426   1.426       .  A
C1426      C1429   1.450       .  S
C1427      C1430   1.410       .  A
C1427      C1434   1.406       .  A
C1428      N1445   1.157       .  T
C1429      N1447   1.157       .  T
C1430      C1431   1.423       .  A
C1430      C1435   1.450       .  S
C1431      C1432   1.431       .  A
C1431      C1437   1.449       .  S
C1432      C1433   1.434       .  A
C1433      C1434   1.417       .  A
C1433      C1436   1.449       .  S
C1434      C1438   1.453       .  S
C1435      N1442   1.157       .  T
C1436      N1443   1.157       .  T
C1437      N1441   1.158       .  T
C1438      N1444   1.157       .  T
C1439      N1448   1.157       .  T
C1440      N1446   1.158       .  T
C1449      C1450   1.418       .  A
C1449      C1454   1.416       .  A
C1449      C1467   1.450       .  S
C1450      C1455   1.513   1_545  S
C1450      C1451   1.415       .  A
C1451      C1452   1.414       .  A
C1451      C1456   1.449       .  S
C1452      C1453   1.410       .  A
C1452      C1468   1.450       .  S
C1453      C1454   1.410       .  A
C1454      C1457   1.450       .  S
C1455      C1458   1.411       .  A
C1455      C1462   1.409       .  A
C1456      N1473   1.157       .  T
C1457      N1475   1.157       .  T
C1458      C1459   1.418       .  A
C1458      C1463   1.450       .  S
C1459      C1460   1.426       .  A
C1459      C1465   1.451       .  S
C1460      C1461   1.430       .  A
C1461      C1462   1.416       .  A
C1461      C1464   1.448       .  S
C1462      C1466   1.454       .  S
C1463      N1470   1.157       .  T
C1464      N1471   1.158       .  T
C1465      N1469   1.158       .  T
C1466      N1472   1.157   1_565  T
C1467      N1476   1.157   1_545  T
C1468      N1474   1.157       .  T
C1477      C1478   1.405       .  A
C1477      C1482   1.414       .  A
C1477      C1495   1.453       .  S
C1478      C1483   1.500       .  S
C1478      C1479   1.405       .  A
C1479      C1480   1.414       .  A
C1479      C1484   1.452       .  S
C1480      C1481   1.428       .  A
C1480      C1496   1.450       .  S
C1481      C1482   1.427       .  A
C1482      C1485   1.446       .  S
C1483      C1486   1.410       .  A
C1483      C1490   1.409       .  A
C1484      N1501   1.157       .  T
C1485      N1503   1.157       .  T
C1486      C1487   1.414       .  A
C1486      C1491   1.450       .  S
C1487      C1488   1.415       .  A
C1487      C1493   1.448       .  S
C1488      C1489   1.420       .  A
C1489      C1490   1.411       .  A
C1489      C1492   1.451       .  S
C1490      C1494   1.451       .  S
C1491      N1498   1.157       .  T
C1492      N1499   1.157       .  T
C1493      N1497   1.157       .  T
C1494      N1500   1.157       .  T
C1495      N1504   1.157       .  T
C1496      N1502   1.157       .  T
C1505      C1506   1.411       .  A
C1505      C1510   1.413       .  A
C1505      C1523   1.451       .  S
C1506      C1511   1.502       .  S
C1506      C1507   1.410       .  A
C1507      C1508   1.412       .  A
C1507      C1512   1.452       .  S
C1508      C1509   1.421       .  A
C1508      C1524   1.452       .  S
C1509      C1510   1.418       .  A
C1510      C1513   1.451       .  S
C1511      C1514   1.409       .  A
C1511      C1518   1.407       .  A
C1512      N1529   1.157       .  T
C1513      N1531   1.157       .  T
C1514      C1515   1.413       .  A
C1514      C1519   1.452       .  S
C1515      C1516   1.425       .  A
C1515      C1521   1.450       .  S
C1516      C1517   1.422       .  A
C1517      C1518   1.414       .  A
C1517      C1520   1.445       .  S
C1518      C1522   1.452       .  S
C1519      N1526   1.157       .  T
C1520      N1527   1.156       .  T
C1521      N1525   1.157       .  T
C1522      N1528   1.157       .  T
C1523      N1532   1.157       .  T
C1524      N1530   1.158       .  T
C1533      C1534   1.410       .  A
C1533      C1538   1.419       .  A
C1533      C1551   1.450       .  S
C1534      C1539   1.511       .  S
C1534      C1535   1.408       .  A
C1535      C1536   1.417       .  A
C1535      C1540   1.453       .  S
C1536      C1537   1.424       .  A
C1536      C1552   1.447       .  S
C1537      C1538   1.424       .  A
C1538      C1541   1.449       .  S
C1539      C1542   1.412       .  A
C1539      C1546   1.408       .  A
C1540      N1557   1.157       .  T
C1541      N1559   1.157       .  T
C1542      C1543   1.421       .  A
C1542      C1547   1.449       .  S
C1543      C1544   1.421       .  A
C1543      C1549   1.449       .  S
C1544      C1545   1.420       .  A
C1545      C1546   1.414       .  A
C1545      C1548   1.446       .  S
C1546      C1550   1.452       .  S
C1547      N1554   1.157       .  T
C1548      N1555   1.156       .  T
C1549      N1553   1.157       .  T
C1550      N1556   1.157       .  T
C1551      N1560   1.157       .  T
C1552      N1558   1.156       .  T
C1561      C1562   1.409       .  A
C1561      C1566   1.412       .  A
C1561      C1579   1.450       .  S
C1562      C1567   1.502       .  S
C1562      C1563   1.409       .  A
C1563      C1564   1.414       .  A
C1563      C1568   1.451       .  S
C1564      C1565   1.415       .  A
C1564      C1580   1.445       .  S
C1565      C1566   1.418       .  A
C1566      C1569   1.451       .  S
C1567      C1570   1.404       .  A
C1567      C1574   1.406       .  A
C1568      N1585   1.157       .  T
C1569      N1587   1.157       .  T
C1570      C1571   1.415       .  A
C1570      C1575   1.452       .  S
C1571      C1572   1.430       .  A
C1571      C1577   1.449       .  S
C1572      C1573   1.429       .  A
C1573      C1574   1.416       .  A
C1573      C1576   1.446       .  S
C1574      C1578   1.453       .  S
C1575      N1582   1.157       .  T
C1576      N1583   1.158       .  T
C1577      N1581   1.157       .  T
C1578      N1584   1.157       .  T
C1579      N1588   1.157       .  T
C1580      N1586   1.156       .  T
C1589      C1590   1.411       .  A
C1589      C1594   1.415       .  A
C1589      C1607   1.450       .  S
C1590      C1595   1.502       .  S
C1590      C1591   1.411       .  A
C1591      C1592   1.411       .  A
C1591      C1596   1.451       .  S
C1592      C1593   1.419       .  A
C1592      C1608   1.452       .  S
C1593      C1594   1.415       .  A
C1594      C1597   1.448       .  S
C1595      C1598   1.411       .  A
C1595      C1602   1.410       .  A
C1596      N1613   1.157       .  T
C1597      N1615   1.156       .  T
C1598      C1599   1.413       .  A
C1598      C1603   1.451       .  S
C1599      C1600   1.419       .  A
C1599      C1605   1.451       .  S
C1600      C1601   1.419       .  A
C1601      C1602   1.414       .  A
C1601      C1604   1.450       .  S
C1602      C1606   1.450       .  S
C1603      N1610   1.157       .  T
C1604      N1611   1.157       .  T
C1605      N1609   1.157       .  T
C1606      N1612   1.157       .  T
C1607      N1616   1.157       .  T
C1608      N1614   1.157       .  T
C1617      C1618   1.406       .  A
C1617      C1622   1.416       .  A
C1617      C1635   1.452       .  S
C1618      C1623   1.511       .  S
C1618      C1619   1.409       .  A
C1619      C1620   1.420       .  A
C1619      C1624   1.451       .  S
C1620      C1621   1.431       .  A
C1620      C1636   1.450       .  S
C1621      C1622   1.429       .  A
C1622      C1625   1.447       .  S
C1623      C1626   1.411       .  A
C1623      C1630   1.408       .  A
C1624      N1641   1.157       .  T
C1625      N1643   1.157       .  T
C1626      C1627   1.419       .  A
C1626      C1631   1.450       .  S
C1627      C1628   1.427       .  A
C1627      C1633   1.451       .  S
C1628      C1629   1.426       .  A
C1629      C1630   1.416       .  A
C1629      C1632   1.449       .  S
C1630      C1634   1.451       .  S
C1631      N1638   1.157       .  T
C1632      N1639   1.158       .  T
C1633      N1637   1.157       .  T
C1634      N1640   1.157       .  T
C1635      N1644   1.157       .  T
C1636      N1642   1.157       .  T
