geometry optimzed in LAMMPS
_audit_creation_date              2020-11-30 
_audit_creation_method            'lammps2cif' 
_symmetry_space_group_name_H-M    'P1' 
_symmetry_Int_Tables_number       1 
_symmetry_cell_setting            triclinic 
loop_ 
_symmetry_equiv_pos_as_xyz 
  x,y,z 
_cell_length_a                    28.07405489 
_cell_length_b                    30.182222317084157 
_cell_length_c                    27.889707968300964 
_cell_angle_alpha                 91.85259175002335 
_cell_angle_beta                  90.84880249926346 
_cell_angle_gamma                 90.34999827706598 
loop_ 
_atom_site_label 
_atom_site_type_symbol 
_atom_site_fract_x 
_atom_site_fract_y 
_atom_site_fract_z 
_atom_site_charge 
N1          N  0.44125282  0.43365785  0.41476614    -0.07400
N2          N  0.43048260  0.40250824  0.38191659    -0.59500
N3          N  0.40818927  0.53686159  0.44521309    -0.07100
N4          N  0.37812760  0.56942944  0.43730828    -0.61600
N5          N  0.44130533  0.53564441  0.41238603    -0.06700
N6          N  0.43438234  0.56728058  0.38139184    -0.59500
N7          N  0.40878182  0.43498793  0.44824440    -0.06300
N8          N  0.37543223  0.40486308  0.43892956    -0.62000
C9          C  0.38962524  0.38430349  0.39782138     0.94800
C10         C  0.39506928  0.58845560  0.39760331     0.94600
N11         N  0.44048569  0.54646093  0.59134541    -0.07600
N12         N  0.43041464  0.58051890  0.62050653    -0.60100
N13         N  0.40960954  0.44130469  0.56160608    -0.05700
N14         N  0.37851241  0.40975173  0.57041590    -0.61300
N15         N  0.44217946  0.44424883  0.59599521    -0.07600
N16         N  0.43383258  0.41464622  0.62881206    -0.60300
N17         N  0.40783988  0.54254126  0.55710764    -0.05300
N18         N  0.37520034  0.57343392  0.56209132    -0.61400
Mn19       Mn  0.40751716  0.48866528  0.50311528     1.18400
C20         C  0.38974819  0.59722007  0.60140004     0.96900
C21         C  0.39429045  0.39292193  0.61213557     0.97500
N22         N  0.55326532  0.53660185  0.41482666    -0.07600
N23         N  0.55978175  0.56813894  0.38383789    -0.63900
N24         N  0.58749291  0.43639348  0.45023310    -0.06400
N25         N  0.61986874  0.40568219  0.44103385    -0.64600
N26         N  0.55380570  0.43456187  0.41688946    -0.07100
N27         N  0.56243482  0.40250650  0.38493573    -0.64200
N28         N  0.58661408  0.53858415  0.44847516    -0.06000
N29         N  0.61652146  0.57148356  0.44098140    -0.64900
Mn30       Mn  0.49753816  0.48495071  0.41339492     1.10700
C31         C  0.59908628  0.58994717  0.40081146     0.98100
C32         C  0.60357355  0.38422316  0.40042613     0.98200
N33         N  0.55498982  0.44575796  0.59850435    -0.07100
N34         N  0.56474358  0.41793797  0.63288947    -0.62500
N35         N  0.58795965  0.54478812  0.56178199    -0.06500
N36         N  0.62142809  0.57487179  0.57128672    -0.59200
N37         N  0.55484235  0.54701957  0.59468229    -0.07800
N38         N  0.56553174  0.57843231  0.62729508    -0.62100
N39         N  0.58798592  0.44355774  0.56545179    -0.06700
N40         N  0.62085023  0.41447668  0.57705133    -0.59300
Mn41       Mn  0.49797325  0.49616397  0.59658757     1.20200
Mn42       Mn  0.58888368  0.49062080  0.50633886     1.10100
Cl43       Cl  0.49809778  0.48995420  0.50496594    -0.87200
C44         C  0.60574076  0.39818040  0.61893506     0.95100
C45         C  0.60694230  0.59605677  0.61205271     0.94900
N46         N  0.94441849  0.46605507  0.90275886    -0.07400
N47         N  0.93531407  0.43382681  0.87054413    -0.59500
N48         N  0.90762361  0.56805710  0.93450813    -0.07100
N49         N  0.87421035  0.59712119  0.92446523    -0.61600
N50         N  0.94059212  0.56765698  0.90140804    -0.06700
N51         N  0.93069347  0.59692750  0.86857838    -0.59500
N52         N  0.91173162  0.46676093  0.93606040    -0.06300
N53         N  0.88024685  0.43485547  0.92737878    -0.62000
C54         C  0.89523473  0.41422576  0.88650822     0.94800
C55         C  0.88933977  0.61503769  0.88350178     0.94600
N56         N  0.94279850  0.57474751  0.08242203    -0.07600
N57         N  0.93262978  0.60410500  0.11663613    -0.60100
N58         N  0.91200994  0.47119568  0.04913637    -0.05700
N59         N  0.88004362  0.44048591  0.05830873    -0.61300
N60         N  0.94499078  0.47349289  0.08316373    -0.07600
N61         N  0.93581097  0.44458851  0.11650313    -0.60300
N62         N  0.90881610  0.57290654  0.04936122    -0.05300
N63         N  0.87455129  0.60104932  0.06089318    -0.61400
Mn64       Mn  0.90880891  0.51987027  0.99221246     1.18400
C65         C  0.89008881  0.62036850  0.10289139     0.96900
C66         C  0.89559509  0.42389735  0.10007097     0.97500
N67         N  0.05197804  0.57280250  0.90275057    -0.07600
N68         N  0.05738830  0.60293165  0.87009746    -0.63900
N69         N  0.09128457  0.47558885  0.93902530    -0.06400
N70         N  0.12370511  0.44446770  0.93479044    -0.64600
N71         N  0.05808914  0.47066519  0.90549519    -0.07100
N72         N  0.06748610  0.43568651  0.87748179    -0.64200
N73         N  0.08535315  0.57708222  0.93620032    -0.06000
N74         N  0.11441915  0.61022568  0.92651766    -0.64900
Mn75       Mn  0.99893503  0.51895075  0.90158220     1.10700
C76         C  0.09616597  0.62645404  0.88532749     0.98100
C77         C  0.10839137  0.41958515  0.89661250     0.98200
N78         N  0.05748420  0.47708550  0.08248887    -0.07100
N79         N  0.06443464  0.44370451  0.11115544    -0.62500
N80         N  0.08662958  0.58038876  0.05000422    -0.06500
N81         N  0.11821011  0.61199455  0.05993670    -0.59200
N82         N  0.05449493  0.57915161  0.08370172    -0.07800
N83         N  0.06371067  0.61000294  0.11724431    -0.62100
N84         N  0.09098688  0.47836323  0.05009506    -0.06700
N85         N  0.12145020  0.44574196  0.05606771    -0.59300
Mn86       Mn  0.00009733  0.52610746  0.08420767     1.20200
Mn87       Mn  0.09001841  0.52836523  0.99382664     1.10100
Cl88       Cl  0.99937218  0.52338864  0.99292261    -0.87200
C89         C  0.10422106  0.42415445  0.09402752     0.95100
C90         C  0.10327306  0.63072455  0.10176934     0.94900
C91         C  0.71891211  0.21385848  0.79157475     0.85200
C92         C  0.75516390  0.24310071  0.82062697    -0.55000
C93         C  0.77747789  0.27467939  0.79487311     0.08100
C94         C  0.76472188  0.27160607  0.74086197     0.19100
C95         C  0.68663678  0.24707506  0.76615318    -0.55700
C96         C  0.71020695  0.27724442  0.73965892     0.08300
C97         C  0.74952211  0.19290235  0.75200968    -0.55300
C98         C  0.77316143  0.22265226  0.72513759     0.08800
H99         H  0.76422381  0.23948674  0.85800789     0.13300
H100        H  0.78390503  0.29590755  0.71903303    -0.00900
H101        H  0.64804692  0.24598040  0.76810682     0.13600
H102        H  0.75258769  0.15731250  0.74586628     0.13400
N103        N  0.40899104  0.05172748  0.94419424    -0.07400
N104        N  0.38102493  0.08558338  0.93490814    -0.59500
N105        N  0.43087019  0.94513543  0.91484352    -0.07100
N106        N  0.41771567  0.91334856  0.88368356    -0.61600
N107        N  0.39843421  0.95043551  0.94809285    -0.06700
N108        N  0.36233716  0.92283243  0.93998760    -0.59500
N109        N  0.44088732  0.04651599  0.91038890    -0.06300
N110        N  0.43493638  0.07632664  0.87716991    -0.62000
C111        C  0.39795165  0.10082559  0.89327934     0.94800
C112        C  0.37523236  0.89952109  0.90020140     0.94600
N113        N  0.57697090  0.93563558  0.94712439    -0.07600
N114        N  0.60723765  0.90338436  0.93697390    -0.60100
N115        N  0.55311895  0.03769697  0.91064739    -0.05700
N116        N  0.56356614  0.06760987  0.87881043    -0.61300
N117        N  0.58655203  0.03686655  0.94413774    -0.07600
N118        N  0.62029413  0.06606944  0.93587824    -0.60300
N119        N  0.54333490  0.93662285  0.91384069    -0.05300
N120        N  0.55034348  0.90537033  0.88055128    -0.61400
Mn121      Mn  0.49199580  0.99132607  0.91113020     1.18400
C122        C  0.58997671  0.88425892  0.89547798     0.96900
C123        C  0.60535434  0.08537572  0.89534238     0.97500
N124        N  0.40186921  0.95660593  0.06184109    -0.07600
N125        N  0.36876914  0.92690391  0.07148193    -0.63900
N126        N  0.44350915  0.05814335  0.09093594    -0.03200
N127        N  0.43465188  0.08999654  0.12331338    -0.64600
N128        N  0.41049829  0.05766222  0.05692217    -0.07100
N129        N  0.37886383  0.08886872  0.06520801    -0.64200
N130        N  0.43621464  0.95632217  0.09452647    -0.06000
N131        N  0.42759988  0.92615376  0.12654902    -0.64900
Mn132      Mn  0.40376592  0.00416712  0.00278665     1.10700
C133        C  0.38568172  0.90790911  0.11162689     0.98100
C134        C  0.39439723  0.10901630  0.10637695     0.98200
N135        N  0.58927206  0.04507879  0.05708321    -0.07100
N136        N  0.62369880  0.07487794  0.06375108    -0.62500
N137        N  0.54823884  0.94882538  0.09520240    -0.06500
N138        N  0.55611183  0.92029828  0.12936309    -0.59200
N139        N  0.57943968  0.94324062  0.06082018    -0.07800
N140        N  0.60879314  0.91062424  0.07057381    -0.62100
N141        N  0.55678228  0.05026729  0.09035237    -0.06700
N142        N  0.56852212  0.08348118  0.12037337    -0.59300
Mn143      Mn  0.58429748  0.98992921  0.00234544     1.20200
Mn144      Mn  0.49621964  0.00366398  0.09416531     1.10100
Cl145      Cl  0.49408343  0.99723579  0.00262154    -0.87200
C146        C  0.61000682  0.09881922  0.10302046     0.95100
C147        C  0.59348831  0.89628448  0.11310416     0.94900
C148        C  0.27195079  0.72832100  0.70235041     0.85200
C149        C  0.24234728  0.76005687  0.67253609    -0.55000
C150        C  0.21409672  0.78813371  0.69879189     0.08100
C151        C  0.21663677  0.78065271  0.75347038     0.19100
C152        C  0.29844523  0.75875314  0.73965171    -0.55700
C153        C  0.26994086  0.78590985  0.76681221     0.08300
C154        C  0.23579131  0.70385822  0.73277883    -0.55300
C155        C  0.20643749  0.73090552  0.75876555     0.08800
H156        H  0.24421079  0.76066603  0.63369681     0.13300
H157        H  0.19252992  0.80188376  0.77519728    -0.00900
H158        H  0.33640655  0.75841288  0.74627877     0.13600
H159        H  0.23402934  0.66797004  0.73439653     0.13400
N160        N  0.94308496  0.07411390  0.57942502    -0.07400
N161        N  0.93467026  0.10598308  0.61179337    -0.59500
N162        N  0.90570677  0.97168299  0.54807857    -0.07100
N163        N  0.87288909  0.94162310  0.55674037    -0.61600
N164        N  0.93890378  0.97238730  0.58184536    -0.06700
N165        N  0.92921988  0.94287835  0.61434992    -0.59500
N166        N  0.90984250  0.07348520  0.54567012    -0.06300
N167        N  0.87838605  0.10500957  0.55444047    -0.62000
C168        C  0.89450701  0.12559705  0.59553781     0.94800
C169        C  0.88822408  0.92354398  0.59788429     0.94600
N170        N  0.93643731  0.96192752  0.40112277    -0.07600
N171        N  0.92390408  0.93009483  0.36945480    -0.60100
N172        N  0.90845618  0.06669925  0.43219053    -0.05700
N173        N  0.87769703  0.09829663  0.42284468    -0.61300
N174        N  0.94091682  0.06394748  0.39873077    -0.07600
N175        N  0.93294723  0.09394036  0.36618290    -0.60300
N176        N  0.90456469  0.96523335  0.43516730    -0.05300
N177        N  0.87033392  0.93565412  0.42757188    -0.61400
Mn178      Mn  0.90607774  0.01937082  0.49022583     1.18400
C179        C  0.88231955  0.91396061  0.38639040     0.96900
C180        C  0.89359756  0.11553141  0.38183240     0.97500
N181        N  0.05174957  0.96872840  0.58211172    -0.07600
N182        N  0.06039706  0.93934104  0.61528149    -0.63900
N183        N  0.08911234  0.06778644  0.54691052    -0.06400
N184        N  0.12480664  0.09505483  0.55865709    -0.64600
N185        N  0.05598497  0.07010712  0.57978923    -0.07100
N186        N  0.06834285  0.09911003  0.61411532    -0.64200
N187        N  0.08448243  0.96651220  0.54885786    -0.06000
N188        N  0.11587660  0.93565095  0.55881319    -0.64900
Mn189      Mn  0.99741148  0.02141335  0.58191202     1.10700
C190        C  0.10038326  0.91857519  0.60017074     0.98100
C191        C  0.11106004  0.11490573  0.60042085     0.98200
N192        N  0.05385828  0.06091702  0.39859674    -0.07100
N193        N  0.06381084  0.08920448  0.36491408    -0.62500
N194        N  0.08379663  0.96118687  0.43543204    -0.06500
N195        N  0.11715603  0.93170414  0.42666953    -0.59200
N196        N  0.05095634  0.95941130  0.40124719    -0.07800
N197        N  0.06183020  0.92853016  0.36844064    -0.62100
N198        N  0.08759019  0.06188865  0.43199526    -0.06700
N199        N  0.12146652  0.09038792  0.42127147    -0.59300
Mn200      Mn  0.99541650  0.01129919  0.39850813     1.20200
Mn201      Mn  0.08721143  0.01448631  0.49080105     1.10100
Cl202      Cl  0.99658495  0.01668742  0.49029017    -0.87200
C203        C  0.10584966  0.10749263  0.37968565     0.95100
C204        C  0.10322751  0.91121710  0.38494817     0.94900
C205        C  0.70246125  0.71893182  0.28827406     0.85200
C206        C  0.73634330  0.74987895  0.31751532    -0.55000
C207        C  0.76468787  0.77629195  0.29086490     0.08100
C208        C  0.75557325  0.77010046  0.23616642     0.19100
C209        C  0.67396490  0.75074246  0.25668766    -0.55700
C210        C  0.70141399  0.77732379  0.22963752     0.08300
C211        C  0.73411348  0.69384154  0.25249495    -0.55300
C212        C  0.76244713  0.71997526  0.22557769     0.08800
H213        H  0.73738022  0.75108535  0.35648932     0.13300
H214        H  0.77779708  0.79203787  0.21432179    -0.00900
H215        H  0.63563551  0.75343690  0.25487464     0.13600
H216        H  0.73480762  0.65786118  0.24948251     0.13400
C217        C  0.20702381  0.28959787  0.20064830     0.85200
C218        C  0.23559977  0.31416100  0.24081339    -0.55000
C219        C  0.26330751  0.28759233  0.26807146     0.08100
C220        C  0.25971564  0.23826534  0.25357870     0.19100
C221        C  0.24352111  0.26219502  0.17226814    -0.55700
C222        C  0.27152986  0.23607744  0.19970306     0.08300
C223        C  0.17872109  0.25407561  0.22742531    -0.55300
C224        C  0.20582687  0.22745201  0.25597142     0.08800
H225        H  0.23460012  0.34990066  0.24671689     0.13300
H226        H  0.28307297  0.21781785  0.27615737    -0.00900
H227        H  0.24642793  0.26277591  0.13349144     0.13600
H228        H  0.14056372  0.24976585  0.22519957     0.13400
C229        C  0.78133104  0.29837217  0.20689597     0.85200
C230        C  0.81393834  0.26987542  0.23772441    -0.55000
C231        C  0.79092922  0.23851432  0.26298322     0.08100
C232        C  0.73632840  0.23892409  0.25621358     0.19100
C233        C  0.75112156  0.26509609  0.17601485    -0.55700
C234        C  0.72829628  0.23323068  0.20131753     0.08300
C235        C  0.74474991  0.31780066  0.24258633    -0.55300
C236        C  0.72160654  0.28696360  0.26837582     0.08800
H237        H  0.85239397  0.27411644  0.23922043     0.13300
H238        H  0.71709549  0.21435095  0.27761468    -0.00900
H239        H  0.74830581  0.26652055  0.13723553     0.13600
H240        H  0.73591475  0.35248149  0.24725046     0.13400
C241        C  0.29008850  0.72424701  0.29346741     0.85200
C242        C  0.31933248  0.75713354  0.26429540    -0.55000
C243        C  0.29275021  0.78457476  0.23617917     0.08100
C244        C  0.23866037  0.77683969  0.24072898     0.19100
C245        C  0.25545742  0.75430371  0.32215562    -0.55700
C246        C  0.22943962  0.78240664  0.29475426     0.08300
C247        C  0.25723477  0.70007729  0.25666065    -0.55300
C248        C  0.23089764  0.72741270  0.22913220     0.08800
H249        H  0.35798015  0.75831871  0.26589726     0.13300
H250        H  0.21608479  0.79764137  0.21771338    -0.00900
H251        H  0.25069998  0.75436782  0.36049527     0.13600
H252        H  0.25464540  0.66419655  0.25288466     0.13400
C253        C  0.22042859  0.28533816  0.79661502     0.85200
C254        C  0.19236016  0.25331975  0.76243092    -0.55000
C255        C  0.21997056  0.22690330  0.73382846     0.08100
C256        C  0.27383406  0.23590789  0.74037098     0.19100
C257        C  0.25506958  0.25533505  0.82345643    -0.55700
C258        C  0.28322989  0.22919622  0.79455018     0.08300
C259        C  0.25124312  0.31150401  0.76250012    -0.55300
C260        C  0.27914602  0.28616187  0.73329003     0.08800
H261        H  0.15402026  0.25160955  0.75879112     0.13300
H262        H  0.29660099  0.21587026  0.71593799    -0.00900
H263        H  0.25614818  0.25414602  0.86233517     0.13600
H264        H  0.25036129  0.34741223  0.76078616     0.13400
C265        C  0.77710462  0.79681236  0.70684136     0.85200
C266        C  0.81005807  0.77001284  0.73937840    -0.55000
C267        C  0.78730697  0.74197874  0.76928206     0.08100
C268        C  0.73256039  0.74187158  0.76196269     0.19100
C269        C  0.74762102  0.76065987  0.67921280    -0.55700
C270        C  0.72510984  0.73151597  0.70786841     0.08300
C271        C  0.74048579  0.81891509  0.74023358    -0.55300
C272        C  0.71763722  0.79048434  0.76927742     0.08800
H273        H  0.84848801  0.77177983  0.73664415     0.13300
H274        H  0.71289485  0.71922289  0.78531101    -0.00900
H275        H  0.74368535  0.75726246  0.64070297     0.13600
H276        H  0.73326479  0.85424465  0.74094216     0.13400
C277        C  0.14223739  0.14262669  0.63291169    -0.07400
C278        C  0.13474651  0.13985887  0.68238105    -0.18500
C279        C  0.16233367  0.16412560  0.71593643     0.09800
C280        C  0.19784694  0.19343999  0.70019018    -0.07300
C281        C  0.20735493  0.19476199  0.65099527    -0.18500
C282        C  0.17966732  0.17004239  0.61714832     0.09800
S283        S  0.15050470  0.15559508  0.77849692    -0.33500
S284        S  0.19192333  0.17733244  0.55468986    -0.33500
H285        H  0.14369904  0.17855630  0.54036881     0.27800
H286        H  0.19679580  0.16575087  0.79549790     0.27800
H287        H  0.10742931  0.11796059  0.69539577     0.18400
H288        H  0.23463329  0.21704929  0.63864856     0.18400
C289        C  0.13298312  0.13952635  0.35170167    -0.07400
C290        C  0.17698220  0.12682000  0.33271469    -0.18500
C291        C  0.20196543  0.15416605  0.30151955     0.09800
C292        C  0.18303278  0.19612570  0.29000520    -0.07300
C293        C  0.13968316  0.20907621  0.31114698    -0.18500
C294        C  0.11440003  0.18126648  0.34095125     0.09800
S295        S  0.25538316  0.13274259  0.27435166    -0.33500
S296        S  0.05845314  0.20106206  0.36407334    -0.33500
H297        H  0.06072204  0.17842561  0.40731361     0.27800
H298        H  0.25910677  0.09405190  0.30090039     0.27800
H299        H  0.19063626  0.09436424  0.34071408     0.18400
H300        H  0.12503094  0.24146814  0.30462272     0.18400
C301        C  0.80547701  0.83040060  0.67773758    -0.07400
C302        C  0.80660325  0.82733074  0.62706751    -0.18500
C303        C  0.83403590  0.85626505  0.60041007     0.09800
C304        C  0.86111427  0.89004389  0.62409582    -0.07300
C305        C  0.86065691  0.89344537  0.67423456    -0.18500
C306        C  0.83314467  0.86465176  0.70124497     0.09800
S307        S  0.83455871  0.84678119  0.53619064    -0.33500
S308        S  0.83397797  0.87289396  0.76584303    -0.33500
H309        H  0.86178628  0.91182871  0.76839962     0.27800
H310        H  0.88339292  0.85619093  0.53151854     0.27800
H311        H  0.78733557  0.80196935  0.60692280     0.18400
H312        H  0.88132262  0.91955397  0.69230101     0.18400
C313        C  0.13413372  0.87863251  0.35895412    -0.07400
C314        C  0.18103177  0.87402144  0.37649187    -0.18500
C315        C  0.21303091  0.84470528  0.35494346     0.09800
C316        C  0.19770129  0.81677405  0.31605577    -0.07300
C317        C  0.15131995  0.82167677  0.29751176    -0.18500
C318        C  0.11971885  0.85267483  0.31792787     0.09800
S319        S  0.27372351  0.84675884  0.37729123    -0.33500
S320        S  0.06168923  0.85674133  0.29035498    -0.33500
H321        H  0.06839049  0.90152485  0.27939042     0.27800
H322        H  0.29450211  0.83992605  0.33208166     0.27800
H323        H  0.19376123  0.89442562  0.40673807     0.18400
H324        H  0.13951154  0.80111100  0.26702341     0.18400
C325        C  0.79650083  0.81083869  0.31426996    -0.07400
C326        C  0.77711318  0.83810244  0.35055720    -0.18500
C327        C  0.80333562  0.87244480  0.37321421     0.09800
C328        C  0.85177079  0.87932030  0.36131917    -0.07300
C329        C  0.87140585  0.85186956  0.32496085    -0.18500
C330        C  0.84450539  0.81779151  0.30161788     0.09800
S331        S  0.77105626  0.90749174  0.41475168    -0.33500
S332        S  0.87431462  0.78259566  0.25843695    -0.33500
H333        H  0.85301752  0.74350743  0.27419536     0.27800
H334        H  0.78514763  0.94684015  0.39302227     0.27800
H335        H  0.74015383  0.83373303  0.36018338     0.18400
H336        H  0.90835274  0.85623319  0.31535277     0.18400
C337        C  0.81699320  0.20662761  0.29304428    -0.07400
C338        C  0.80442963  0.20285540  0.34120021    -0.18500
C339        C  0.82989110  0.17529673  0.37188711     0.09800
C340        C  0.86803423  0.14938052  0.35370227    -0.07300
C341        C  0.88050159  0.15358085  0.30549603    -0.18500
C342        C  0.85534770  0.18120025  0.27508461     0.09800
S343        S  0.81292501  0.17650921  0.43395728    -0.33500
S344        S  0.87245710  0.17995208  0.21303292    -0.33500
H345        H  0.82605971  0.18492454  0.19445068     0.27800
H346        H  0.86013847  0.17912966  0.45156832     0.27800
H347        H  0.77547085  0.22259864  0.35543390     0.18400
H348        H  0.90916089  0.13389245  0.29055707     0.18400
C349        C  0.18582938  0.82358848  0.67598342    -0.07400
C350        C  0.13728714  0.82781382  0.68650261    -0.18500
C351        C  0.10840705  0.85862689  0.66317877     0.09800
C352        C  0.12813296  0.88571711  0.62782149    -0.07300
C353        C  0.17689583  0.88176072  0.61812741    -0.18500
C354        C  0.20595595  0.85204563  0.64218599     0.09800
S355        S  0.04634735  0.85989789  0.67818378    -0.33500
S356        S  0.26873262  0.85381557  0.62878588    -0.33500
H357        H  0.28551534  0.84072059  0.67380336     0.27800
H358        H  0.04962292  0.90321003  0.69825034     0.27800
H359        H  0.12148691  0.80633385  0.71238506     0.18400
H360        H  0.19310996  0.90285124  0.59213001     0.18400
C361        C  0.63942064  0.13383514  0.12731037    -0.07400
C362        C  0.67047675  0.12147012  0.16425220    -0.18500
C363        C  0.69987856  0.15273148  0.18898706     0.09800
C364        C  0.69764282  0.19798677  0.17713372    -0.07300
C365        C  0.66621899  0.21013575  0.14003920    -0.18500
C366        C  0.63735373  0.17880721  0.11498493     0.09800
S367        S  0.74193892  0.13336789  0.23307640    -0.33500
S368        S  0.59858179  0.19918662  0.06841550    -0.33500
H369        H  0.57987770  0.15872759  0.05036302     0.27800
H370        H  0.73038695  0.08800565  0.22862120     0.27800
H371        H  0.67205437  0.08686346  0.17322398     0.18400
H372        H  0.66381515  0.24460715  0.13061586     0.18400
C373        C  0.30537216  0.20443717  0.17782316    -0.07400
C374        C  0.28777726  0.16216560  0.16519596    -0.18500
C375        C  0.31685519  0.13001273  0.14405463     0.09800
C376        C  0.36471392  0.14047026  0.13392753    -0.07300
C377        C  0.38248999  0.18291004  0.14611231    -0.18500
C378        C  0.35312155  0.21538920  0.16716826     0.09800
S379        S  0.29071408  0.07603954  0.13146107    -0.33500
S380        S  0.37868441  0.27004831  0.17689826    -0.33500
H381        H  0.33702062  0.29310644  0.18833052     0.27800
H382        H  0.33241807  0.05209505  0.14111226     0.27800
H383        H  0.25085063  0.15409260  0.17196077     0.18400
H384        H  0.41883626  0.19135693  0.13730079     0.18400
C385        C  0.35994238  0.87441172  0.13887047    -0.07400
C386        C  0.31761787  0.88681938  0.16138483    -0.18500
C387        C  0.29550554  0.85920824  0.19424312     0.09800
C388        C  0.31478781  0.81670757  0.20282293    -0.07300
C389        C  0.35675085  0.80419452  0.17894799    -0.18500
C390        C  0.37972825  0.83265040  0.14789089     0.09800
S391        S  0.24654558  0.88152384  0.22855235    -0.33500
S392        S  0.43445087  0.81387959  0.12111422    -0.33500
H393        H  0.42939702  0.83753624  0.07874023     0.27800
H394        H  0.24241818  0.92203516  0.20534784     0.27800
H395        H  0.30360646  0.91955893  0.15539005     0.18400
H396        H  0.37196176  0.77181181  0.18435529     0.18400
C397        C  0.61724643  0.85159115  0.86537853    -0.07400
C398        C  0.66174820  0.83739591  0.88278073    -0.18500
C399        C  0.69375730  0.81446227  0.85291052     0.09800
C400        C  0.68174925  0.80626427  0.80424818    -0.07300
C401        C  0.63617901  0.81718453  0.78756118    -0.18500
C402        C  0.60330576  0.83834767  0.81781640     0.09800
S403        S  0.75087954  0.79795964  0.87648665    -0.33500
S404        S  0.54473308  0.84747055  0.79293447    -0.33500
H405        H  0.52113649  0.83439794  0.83442459     0.27800
H406        H  0.74325026  0.81162898  0.92443231     0.27800
H407        H  0.67243453  0.84593095  0.91937253     0.18400
H408        H  0.62635822  0.80959781  0.75044750     0.18400
C409        C  0.31739580  0.19667230  0.81537427    -0.07400
C410        C  0.34383318  0.20988634  0.85683714    -0.18500
C411        C  0.37189392  0.17987143  0.88194101     0.09800
C412        C  0.37431908  0.13538973  0.86534596    -0.07300
C413        C  0.35022230  0.12241371  0.82282439    -0.18500
C414        C  0.32131924  0.15215112  0.79793323     0.09800
S415        S  0.40328903  0.20021102  0.93517926    -0.33500
S416        S  0.28659988  0.13089611  0.74714786    -0.33500
H417        H  0.30414386  0.08734138  0.74628327     0.27800
H418        H  0.44085571  0.16966838  0.93258396     0.27800
H419        H  0.34202581  0.24388747  0.87036922     0.18400
H420        H  0.35213553  0.08806462  0.81058648     0.18400
C421        C  0.62018960  0.86462316  0.14214300    -0.07400
C422        C  0.63734935  0.87925977  0.18738542    -0.18500
C423        C  0.66686185  0.85250270  0.21483561     0.09800
C424        C  0.67873474  0.80960785  0.19767519    -0.07300
C425        C  0.66048055  0.79446344  0.15291051    -0.18500
C426        C  0.63192754  0.82167564  0.12468797     0.09800
S427        S  0.68770547  0.87428715  0.27203324    -0.33500
S428        S  0.60980110  0.79901891  0.06794765    -0.33500
H429        H  0.56696807  0.82293630  0.06767973     0.27800
H430        H  0.73533749  0.86452335  0.26145709     0.27800
H431        H  0.62880111  0.91229806  0.20088874     0.18400
H432        H  0.66716508  0.76070245  0.14059046     0.18400
C433        C  0.29065695  0.81429820  0.80703465    -0.07400
C434        C  0.32874961  0.79688186  0.83396198    -0.18500
C435        C  0.35580773  0.82341161  0.86616589     0.09800
C436        C  0.34365190  0.86817995  0.87356908    -0.07300
C437        C  0.30298667  0.88474099  0.85077948    -0.18500
C438        C  0.27688934  0.85872109  0.81701831     0.09800
S439        S  0.40629457  0.79855372  0.89545764    -0.33500
S440        S  0.22995901  0.88602777  0.78514050    -0.33500
H441        H  0.24727107  0.87278819  0.74012717     0.27800
H442        H  0.40722479  0.82723343  0.93620373     0.27800
H443        H  0.33870758  0.76245573  0.82881239     0.18400
H444        H  0.29358773  0.91926045  0.85664358     0.18400
C445        C  0.80458921  0.20722256  0.68575684    -0.07400
C446        C  0.85398697  0.20777115  0.69398954    -0.18500
C447        C  0.88490473  0.18421565  0.66342143     0.09800
C448        C  0.86607866  0.15869037  0.62383864    -0.07300
C449        C  0.81697117  0.16129322  0.61374231    -0.18500
C450        C  0.78617172  0.18485472  0.64411397     0.09800
S451        S  0.94765251  0.18767685  0.67761470    -0.33500
S452        S  0.72349669  0.18249832  0.62860967    -0.33500
H453        H  0.70832294  0.21703312  0.65927720     0.27800
H454        H  0.96171844  0.18836959  0.62942255     0.27800
H455        H  0.86840529  0.22499431  0.72573595     0.18400
H456        H  0.80173760  0.14279053  0.58324605     0.18400
C457        C  0.63290865  0.11945698  0.87047124    -0.07400
C458        C  0.62960419  0.12057400  0.82039966    -0.18500
C459        C  0.65681769  0.15044721  0.79444477     0.09800
C460        C  0.68941419  0.17994996  0.81897221    -0.07300
C461        C  0.69135960  0.17907288  0.86959923    -0.18500
C462        C  0.66348842  0.14984383  0.89524688     0.09800
S463        S  0.64856234  0.15030560  0.72993540    -0.33500
S464        S  0.66680099  0.15510519  0.95984472    -0.33500
H465        H  0.61747146  0.14976542  0.96600576     0.27800
H466        H  0.60924427  0.12120640  0.72675828     0.27800
H467        H  0.60598200  0.09735123  0.80140962     0.18400
H468        H  0.71283951  0.20213397  0.89072443     0.18400
C469        C  0.17946842  0.32227051  0.16929882    -0.07400
C470        C  0.12915364  0.32166232  0.16606688    -0.18500
C471        C  0.10379916  0.35299869  0.14013046     0.09800
C472        C  0.12858497  0.38669709  0.11681916    -0.07300
C473        C  0.17840668  0.38661167  0.11792885    -0.18500
C474        C  0.20409644  0.35540023  0.14385916     0.09800
S475        S  0.03975347  0.34738245  0.13742908    -0.33500
S476        S  0.26848908  0.36012016  0.14536114    -0.33500
H477        H  0.27283628  0.39491018  0.11333696     0.27800
H478        H  0.03508259  0.36089246  0.08978181     0.27800
H479        H  0.10824633  0.29724533  0.18365026     0.18400
H480        H  0.19734105  0.41249355  0.09997898     0.18400
C481        C  0.13262363  0.66278627  0.13121057    -0.07400
C482        C  0.18028389  0.66949661  0.11792245    -0.18500
C483        C  0.21244032  0.69289271  0.14822810     0.09800
C484        C  0.19677769  0.70996953  0.19262234    -0.07300
C485        C  0.14869135  0.70669946  0.20447124    -0.18500
C486        C  0.11613269  0.68372915  0.17402336     0.09800
S487        S  0.27378474  0.69974989  0.13100019    -0.33500
S488        S  0.05427410  0.68148338  0.19095357    -0.33500
H489        H  0.05757401  0.71253001  0.22961449     0.27800
H490        H  0.26916938  0.67927550  0.08512618     0.27800
H491        H  0.19307372  0.65468410  0.08473192     0.18400
H492        H  0.13716851  0.72062581  0.23860000     0.18400
C493        C  0.79906160  0.69957488  0.19379429    -0.07400
C494        C  0.82740656  0.66617907  0.21306342    -0.18500
C495        C  0.85698274  0.64003940  0.18433865     0.09800
C496        C  0.86013118  0.64811892  0.13482699    -0.07300
C497        C  0.83336229  0.68261334  0.11559852    -0.18500
C498        C  0.80292866  0.70856858  0.14459061     0.09800
S499        S  0.88615221  0.59444066  0.21269710    -0.33500
S500        S  0.76780577  0.75124084  0.11778907    -0.33500
H501        H  0.78173792  0.74289120  0.07012714     0.27800
H502        H  0.87522932  0.56348740  0.17528615     0.27800
H503        H  0.82482780  0.65899226  0.25077943     0.18400
H504        H  0.83606008  0.68885202  0.07772104     0.18400
C505        C  0.11971999  0.65978762  0.85526150    -0.07400
C506        C  0.10932309  0.65808787  0.80574141    -0.18500
C507        C  0.13421069  0.68409155  0.77394909     0.09800
C508        C  0.17102747  0.71238074  0.79149982    -0.07300
C509        C  0.17898315  0.71714916  0.84118331    -0.18500
C510        C  0.15344505  0.69136970  0.87341256     0.09800
S511        S  0.11830225  0.67855803  0.71112245    -0.33500
S512        S  0.16432874  0.69927274  0.93711613    -0.33500
H513        H  0.19526261  0.73592101  0.93433989     0.27800
H514        H  0.13420784  0.72086675  0.69876762     0.27800
H515        H  0.08267735  0.63509220  0.79113053     0.18400
H516        H  0.20697380  0.73937064  0.85444268     0.18400
C517        C  0.81310804  0.71120065  0.80177281    -0.07400
C518        C  0.79355935  0.66872838  0.80799551    -0.18500
C519        C  0.81719875  0.63708811  0.83506422     0.09800
C520        C  0.86214102  0.64734731  0.85588228    -0.07300
C521        C  0.88185144  0.68943133  0.85020436    -0.18500
C522        C  0.85743966  0.72183638  0.82497201     0.09800
S523        S  0.78883302  0.58370824  0.84027356    -0.33500
S524        S  0.88409039  0.77633825  0.82729033    -0.33500
H525        H  0.84051058  0.79866406  0.82923966     0.27800
H526        H  0.83103162  0.55886019  0.83992658     0.27800
H527        H  0.76032175  0.65917868  0.79031606     0.18400
H528        H  0.91595720  0.69763333  0.86708043     0.18400
C529        C  0.13562796  0.38173602  0.87683227    -0.07400
C530        C  0.18551758  0.38379847  0.87942022    -0.18500
C531        C  0.21360444  0.35105762  0.85723653     0.09800
C532        C  0.19129592  0.31605623  0.82976293    -0.07300
C533        C  0.14124968  0.31179098  0.83237900    -0.18500
C534        C  0.11355581  0.34387152  0.85572319     0.09800
S535        S  0.27779532  0.35536039  0.86369000    -0.33500
S536        S  0.05050233  0.33336397  0.85926417    -0.33500
H537        H  0.04544293  0.35317357  0.90525518     0.27800
H538        H  0.27906536  0.39138876  0.89696651     0.27800
H539        H  0.20259770  0.41195628  0.89770198     0.18400
H540        H  0.12261189  0.28323701  0.81735404     0.18400
C541        C  0.81077654  0.33143465  0.17799922    -0.07400
C542        C  0.81107969  0.37725581  0.19049706    -0.18500
C543        C  0.83835859  0.40779962  0.16583918     0.09800
C544        C  0.86729615  0.39293591  0.12794633    -0.07300
C545        C  0.86867689  0.34774186  0.11576861    -0.18500
C546        C  0.84167798  0.31677491  0.14061422     0.09800
S547        S  0.83513765  0.46537891  0.18524354    -0.33500
S548        S  0.84857559  0.25870289  0.12432892    -0.33500
H549        H  0.88319598  0.26354643  0.08891913     0.27800
H550        H  0.84217868  0.48348496  0.14010108     0.27800
H551        H  0.79123662  0.39037728  0.22036717     0.18400
H552        H  0.89152282  0.33674888  0.08685276     0.18400
C553        C  0.86763069  0.37743154  0.86161705    -0.07400
C554        C  0.82546872  0.36386050  0.88347735    -0.18500
C555        C  0.79516712  0.33167384  0.86231546     0.09800
C556        C  0.80770288  0.31051342  0.81817056    -0.07300
C557        C  0.84948007  0.32424079  0.79569436    -0.18500
C558        C  0.87942429  0.35724153  0.81667509     0.09800
S559        S  0.73861300  0.32192586  0.89070287    -0.33500
S560        S  0.93124837  0.37213896  0.78351728    -0.33500
H561        H  0.96223583  0.36580758  0.82256159     0.27800
H562        H  0.75063233  0.34097635  0.93600920     0.27800
H563        H  0.81500139  0.37970277  0.91699525     0.18400
H564        H  0.85933864  0.30870667  0.76174222     0.18400
C565        C  0.69675371  0.69353336  0.68739936    -0.07400
C566        C  0.64909738  0.68897705  0.70052462    -0.18500
C567        C  0.61880318  0.65802461  0.67674216     0.09800
C568        C  0.63639388  0.63024399  0.63903150    -0.07300
C569        C  0.68477338  0.63401536  0.62737918    -0.18500
C570        C  0.71507338  0.66450769  0.65150087     0.09800
S571        S  0.55764110  0.65797765  0.69440999    -0.33500
S572        S  0.77719805  0.66363574  0.63581057    -0.33500
H573        H  0.79443988  0.67634854  0.68186797     0.27800
H574        H  0.54135932  0.65913440  0.64658441     0.27800
H575        H  0.63472718  0.71120649  0.72790707     0.18400
H576        H  0.69963255  0.61240595  0.59974680     0.18400
C577        C  0.36691943  0.36009277  0.63937512    -0.07400
C578        C  0.31727893  0.35884796  0.63258648    -0.18500
C579        C  0.28816884  0.33275996  0.66058710     0.09800
C580        C  0.30880929  0.30677701  0.69656796    -0.07300
C581        C  0.35852154  0.30608260  0.70200060    -0.18500
C582        C  0.38781515  0.33225377  0.67372809     0.09800
S583        S  0.22471897  0.33589921  0.64985106    -0.33500
S584        S  0.45125002  0.32864412  0.68347528    -0.33500
H585        H  0.46261543  0.33188042  0.63474335     0.27800
H586        H  0.21373226  0.29338369  0.66534829     0.27800
H587        H  0.30057910  0.37971413  0.60636815     0.18400
H588        H  0.37450853  0.28629452  0.72963835     0.18400
C589        C  0.63061459  0.35057519  0.37118477    -0.07400
C590        C  0.61298567  0.33871193  0.32493120    -0.18500
C591        C  0.64020059  0.31380984  0.29223834     0.09800
C592        C  0.68659101  0.30071096  0.30517408    -0.07300
C593        C  0.70299501  0.30935594  0.35219872    -0.18500
C594        C  0.67525333  0.33310941  0.38550919     0.09800
S595        S  0.61518569  0.30189856  0.23340807    -0.33500
S596        S  0.69946815  0.34020240  0.44515345    -0.33500
H597        H  0.65565735  0.33037834  0.46633776     0.27800
H598        H  0.63561959  0.25963752  0.22920039     0.27800
H599        H  0.57841722  0.35030211  0.31320147     0.18400
H600        H  0.73852375  0.29909014  0.36250529     0.18400
C601        C  0.32122199  0.69150379  0.32156627    -0.07400
C602        C  0.32006392  0.69025450  0.37218161    -0.18500
C603        C  0.34517460  0.65853684  0.39784324     0.09800
C604        C  0.37197731  0.62595046  0.37308935    -0.07300
C605        C  0.37578125  0.62834621  0.32316979    -0.18500
C606        C  0.35147681  0.66069099  0.29727390     0.09800
S607        S  0.34292846  0.66285192  0.46246161    -0.33500
S608        S  0.35916106  0.66115008  0.23291960    -0.33500
H609        H  0.39565076  0.62950329  0.22992333     0.27800
H610        H  0.39117521  0.65216002  0.46969548     0.27800
H611        H  0.30044810  0.71417030  0.39317297     0.18400
H612        H  0.39699195  0.60388345  0.30411886     0.18400
C613        C  0.62344650  0.62580002  0.37549550    -0.07400
C614        C  0.67326868  0.62776638  0.37775198    -0.18500
C615        C  0.69916093  0.65739955  0.35029387     0.09800
C616        C  0.67470098  0.68713911  0.31998308    -0.07300
C617        C  0.62434571  0.68571038  0.31937343    -0.18500
C618        C  0.59880333  0.65595220  0.34677200     0.09800
S619        S  0.76364105  0.65556969  0.35401110    -0.33500
S620        S  0.53463510  0.65922632  0.34434096    -0.33500
H621        H  0.52847097  0.65105193  0.39325558     0.27800
H622        H  0.76757138  0.61718415  0.38103249     0.27800
H623        H  0.69215411  0.60478772  0.40004706     0.18400
H624        H  0.60351706  0.70742609  0.29780611     0.18400
C625        C  0.68500427  0.31062336  0.71054652    -0.07400
C626        C  0.69738408  0.31416499  0.66237919    -0.18500
C627        C  0.67155291  0.34097765  0.63142028     0.09800
C628        C  0.63301924  0.36665663  0.64892990    -0.07300
C629        C  0.62140325  0.36377519  0.69761535    -0.18500
C630        C  0.64706504  0.33667894  0.72849994     0.09800
S631        S  0.68826495  0.33844993  0.56957687    -0.33500
S632        S  0.63128705  0.33905156  0.79092074    -0.33500
H633        H  0.67814522  0.33347728  0.80776371     0.27800
H634        H  0.64100906  0.33259810  0.55291337     0.27800
H635        H  0.72627280  0.29437854  0.64805621     0.18400
H636        H  0.59277451  0.38367796  0.71227766     0.18400
C637        C  0.30276438  0.69683670  0.67143913    -0.07400
C638        C  0.35290855  0.70107216  0.67162201    -0.18500
C639        C  0.38180300  0.67037247  0.64765834     0.09800
C640        C  0.36113873  0.63353039  0.62310830    -0.07300
C641        C  0.31133020  0.63119801  0.61863607    -0.18500
C642        C  0.28200989  0.66280098  0.64132073     0.09800
S643        S  0.44455507  0.68216502  0.64699813    -0.33500
S644        S  0.21836130  0.65929863  0.63042762    -0.33500
H645        H  0.21805267  0.62018522  0.60162158     0.27800
H646        H  0.45143152  0.66543042  0.59995741     0.27800
H647        H  0.37080209  0.72918796  0.68852187     0.18400
H648        H  0.29526564  0.60407643  0.59769753     0.18400
C649        C  0.35868024  0.35313891  0.36914982    -0.07400
C650        C  0.30913987  0.35610019  0.37521508    -0.18500
C651        C  0.27728189  0.33263599  0.34480321     0.09800
C652        C  0.29495075  0.30576002  0.30690484    -0.07300
C653        C  0.34423899  0.29974972  0.30321349    -0.18500
C654        C  0.37631082  0.32312284  0.33374638     0.09800
S655        S  0.21447832  0.33850000  0.35600059    -0.33500
S656        S  0.43893561  0.31317717  0.32542465    -0.33500
H657        H  0.45095026  0.31698179  0.37454681     0.27800
H658        H  0.20150435  0.29589848  0.33831052     0.27800
H659        H  0.29483153  0.37807701  0.40282754     0.18400
H660        H  0.35792827  0.27764049  0.27554623     0.18400
loop_ 
_geom_bond_atom_site_label_1 
_geom_bond_atom_site_label_2 
_geom_bond_distance 
_geom_bond_site_symmetry_2 
_ccdc_geom_bond_type 
N1            N2   1.322       .  A
N1            N7   1.314       .  A
N1          Mn30   2.207       .  S
N2            C9   1.356       .  A
N3            N5   1.314       .  A
N3            N4   1.321       .  A
N3          Mn19   2.208       .  S
N4           C10   1.355       .  A
N5            N6   1.322       .  A
N5          Mn30   2.206       .  S
N6           C10   1.355       .  A
N7            N8   1.318       .  A
N7          Mn19   2.193       .  S
N8            C9   1.352       .  A
C9          C649   1.483       .  S
C10         C604   1.488       .  S
N11          N17   1.316       .  A
N11          N12   1.325       .  A
N11         Mn41   2.229       .  S
N12          C20   1.359       .  A
N13          N14   1.319       .  A
N13          N15   1.316       .  A
N13         Mn19   2.204       .  S
N14          C21   1.354       .  A
N15          N16   1.322       .  A
N15         Mn41   2.208       .  S
N16          C21   1.355       .  A
N17          N18   1.317       .  A
N17         Mn19   2.180       .  S
N18          C20   1.348       .  A
Mn19        Cl43   2.543       .  S
C20         C640   1.482       .  S
C21         C577   1.485       .  S
N22          N23   1.320       .  A
N22          N28   1.315       .  A
N22         Mn30   2.201       .  S
N23          C31   1.353       .  A
N24          N26   1.316       .  A
N24          N25   1.324       .  A
N24         Mn42   2.227       .  S
N25          C32   1.358       .  A
N26          N27   1.320       .  A
N26         Mn30   2.203       .  S
N27          C32   1.354       .  A
N28          N29   1.320       .  A
N28         Mn42   2.203       .  S
N29          C31   1.354       .  A
Mn30        Cl43   2.553       .  S
C31         C613   1.480       .  S
C32         C589   1.499       .  S
N33          N34   1.322       .  A
N33          N39   1.317       .  A
N33         Mn41   2.216       .  S
N34          C44   1.356       .  A
N35          N36   1.321       .  A
N35          N37   1.316       .  A
N35         Mn42   2.214       .  S
N36          C45   1.355       .  A
N37          N38   1.322       .  A
N37         Mn41   2.210       .  S
N38          C45   1.355       .  A
N39          N40   1.321       .  A
N39         Mn42   2.211       .  S
N40          C44   1.355       .  A
Mn41        Cl43   2.556       .  S
Mn42        Cl43   2.548       .  S
C44         C628   1.494       .  S
C45         C568   1.495       .  S
N46          N47   1.324       .  A
N46          N52   1.315       .  A
N46         Mn75   2.206       .  S
N47          C54   1.356       .  A
N48          N50   1.317       .  A
N48          N49   1.321       .  A
N48         Mn64   2.204       .  S
N49          C55   1.353       .  A
N50          N51   1.321       .  A
N50         Mn75   2.208       .  S
N51          C55   1.352       .  A
N52          N53   1.317       .  A
N52         Mn64   2.207       .  S
N53          C54   1.355       .  A
C54         C553   1.496       .  S
C55         C520   1.472       .  S
N56          N62   1.317       .  A
N56          N57   1.317       .  A
N56         Mn86   2.186   1_655  S
N57          C65   1.349       .  A
N58          N59   1.320       .  A
N58          N60   1.316       .  A
N58         Mn64   2.199   1_554  S
N59          C66   1.350       .  A
N60          N61   1.322       .  A
N60         Mn86   2.209   1_655  S
N61          C66   1.354       .  A
N62          N63   1.324       .  A
N62         Mn64   2.222   1_554  S
N63          C65   1.356       .  A
Mn64        Cl88   2.544       .  S
C65         C496   1.478       .  S
C66         C544   1.471       .  S
N67          N68   1.317       .  A
N67          N73   1.315       .  A
N67         Mn75   2.197   1_455  S
N68          C76   1.352       .  A
N69          N71   1.315       .  A
N69          N70   1.316       .  A
N69         Mn87   2.172       .  S
N70          C77   1.347       .  A
N71          N72   1.323       .  A
N71         Mn75   2.220   1_455  S
N72          C77   1.358       .  A
N73          N74   1.324       .  A
N73         Mn87   2.216       .  S
N74          C76   1.358       .  A
Mn75        Cl88   2.546       .  S
C76         C505   1.488       .  S
C77         C529   1.475       .  S
N78          N79   1.320       .  A
N78          N84   1.315       .  A
N78         Mn86   2.194       .  S
N79          C89   1.353       .  A
N80          N81   1.318       .  A
N80          N82   1.314       .  A
N80         Mn87   2.186   1_554  S
N81          C90   1.353       .  A
N82          N83   1.320       .  A
N82         Mn86   2.206       .  S
N83          C90   1.354       .  A
N84          N85   1.321       .  A
N84         Mn87   2.212   1_554  S
N85          C89   1.355       .  A
Mn86        Cl88   2.544   1_454  S
Mn87        Cl88   2.548   1_455  S
C89         C472   1.481       .  S
C90         C481   1.486       .  S
C91          C92   1.546       .  S
C91          C97   1.532       .  S
C91          C95   1.538       .  S
C91         C460   1.541       .  S
C92          H99   1.079       .  S
C92          C93   1.366       .  D
C93          C94   1.543       .  S
C93         C556   1.496       .  S
C94          C98   1.548       .  S
C94          C96   1.541       .  S
C94         H100   1.110       .  S
C95         H101   1.086       .  S
C95          C96   1.365       .  D
C96         C625   1.490       .  S
C97         H102   1.086       .  S
C97          C98   1.364       .  D
C98         C445   1.484       .  S
N103        N104   1.322       .  A
N103        N109   1.316       .  A
N103       Mn132   2.216   1_556  S
N104        C111   1.354       .  A
N105        N107   1.316       .  A
N105        N106   1.321       .  A
N105       Mn121   2.210       .  S
N106        C112   1.353       .  A
N107        N108   1.320       .  A
N107       Mn132   2.193   1_566  S
N108        C112   1.350       .  A
N109        N110   1.322       .  A
N109       Mn121   2.206   1_545  S
N110        C111   1.352       .  A
C111        C412   1.477       .  S
C112        C436   1.469       .  S
N113        N119   1.315       .  A
N113        N114   1.323       .  A
N113       Mn143   2.219   1_556  S
N114        C122   1.358       .  A
N115        N116   1.321       .  A
N115        N117   1.315       .  A
N115       Mn121   2.208   1_545  S
N116        C123   1.355       .  A
N117        N118   1.318       .  A
N117       Mn143   2.190   1_546  S
N118        C123   1.351       .  A
N119        N120   1.320       .  A
N119       Mn121   2.201       .  S
N120        C122   1.353       .  A
Mn121      Cl145   2.552   1_556  S
C122        C397   1.496       .  S
C123        C457   1.480       .  S
N124        N125   1.324       .  A
N124        N130   1.317       .  A
N124       Mn132   2.221   1_565  S
N125        C133   1.355       .  A
N126        N128   1.316       .  A
N126        N127   1.325       .  A
N126       Mn144   2.222       .  S
N127        C134   1.356       .  A
N128        N129   1.316       .  A
N128       Mn132   2.180       .  S
N129        C134   1.347       .  A
N130        N131   1.320       .  A
N130       Mn144   2.203   1_565  S
N131        C133   1.351       .  A
Mn132      Cl145   2.546   1_545  S
C133        C385   1.476       .  S
C134        C376   1.472       .  S
N135        N136   1.323       .  A
N135        N141   1.317       .  A
N135       Mn143   2.224   1_545  S
N136        C146   1.354       .  A
N137        N138   1.322       .  A
N137        N139   1.316       .  A
N137       Mn144   2.215   1_565  S
N138        C147   1.354       .  A
N139        N140   1.320       .  A
N139       Mn143   2.195       .  S
N140        C147   1.351       .  A
N141        N142   1.322       .  A
N141       Mn144   2.206       .  S
N142        C146   1.353       .  A
Mn143      Cl145   2.544       .  S
Mn144      Cl145   2.554   1_545  S
C146        C361   1.478       .  S
C147        C421   1.474       .  S
C148        C149   1.530       .  S
C148        C154   1.534       .  S
C148        C152   1.545       .  S
C148        C637   1.541       .  S
C149        H156   1.086       .  S
C149        C150   1.367       .  D
C150        C151   1.549       .  S
C150        C349   1.490       .  S
C151        C155   1.539       .  S
C151        C153   1.543       .  S
C151        H157   1.108       .  S
C152        H158   1.079       .  S
C152        C153   1.368       .  D
C153        C433   1.498       .  S
C154        H159   1.086       .  S
C154        C155   1.363       .  D
C155        C508   1.479       .  S
N160        N161   1.322       .  A
N160        N166   1.315       .  A
N160       Mn189   2.212       .  S
N161        C168   1.356       .  A
N162        N164   1.315       .  A
N162        N163   1.319       .  A
N162       Mn178   2.197   1_565  S
N163        C169   1.352       .  A
N164        N165   1.321       .  A
N164       Mn189   2.204   1_565  S
N165        C169   1.355       .  A
N166        N167   1.322       .  A
N166       Mn178   2.214       .  S
N167        C168   1.356       .  A
C168        C448   1.495       .  S
C169        C304   1.480       .  S
N170        N176   1.316       .  A
N170        N171   1.326       .  A
N170       Mn200   2.224   1_565  S
N171        C179   1.359       .  A
N172        N173   1.320       .  A
N172        N174   1.315       .  A
N172       Mn178   2.195       .  S
N173        C180   1.352       .  A
N174        N175   1.320       .  A
N174       Mn200   2.213       .  S
N175        C180   1.357       .  A
N176        N177   1.318       .  A
N176       Mn178   2.206   1_565  S
N177        C179   1.352       .  A
Mn178      Cl202   2.543       .  S
C179        C328   1.497       .  S
C180        C340   1.489       .  S
N181        N182   1.323       .  A
N181        N187   1.316       .  A
N181       Mn189   2.210   1_465  S
N182        C190   1.355       .  A
N183        N185   1.316       .  A
N183        N184   1.323       .  A
N183       Mn201   2.208       .  S
N184        C191   1.355       .  A
N185        N186   1.317       .  A
N185       Mn189   2.201   1_455  S
N186        C191   1.353       .  A
N187        N188   1.319       .  A
N187       Mn201   2.209   1_565  S
N188        C190   1.355       .  A
Mn189      Cl202   2.554       .  S
C190        C352   1.492       .  S
C191        C277   1.485       .  S
N192        N193   1.321       .  A
N192        N198   1.318       .  A
N192       Mn200   2.215   1_455  S
N193        C203   1.353       .  A
N194        N195   1.316       .  A
N194        N196   1.316       .  A
N194       Mn201   2.194   1_565  S
N195        C204   1.351       .  A
N196        N197   1.325       .  A
N196       Mn200   2.219   1_465  S
N197        C204   1.358       .  A
N198        N199   1.322       .  A
N198       Mn201   2.211       .  S
N199        C203   1.353       .  A
Mn200      Cl202   2.559       .  S
Mn201      Cl202   2.545   1_455  S
C203        C289   1.477       .  S
C204        C313   1.493       .  S
C205        C206   1.536       .  S
C205        C211   1.531       .  S
C205        C209   1.543       .  S
C205        C616   1.542       .  S
C206        H213   1.086       .  S
C206        C207   1.367       .  D
C207        C208   1.548       .  S
C207        C325   1.496       .  S
C208        C212   1.546       .  S
C208        C210   1.546       .  S
C208        H214   1.110       .  S
C209        H215   1.080       .  S
C209        C210   1.362       .  D
C210        C424   1.482       .  S
C211        H216   1.087       .  S
C211        C212   1.366       .  D
C212        C493   1.490       .  S
C217        C218   1.536       .  S
C217        C223   1.548       .  S
C217        C221   1.534       .  S
C217        C469   1.543       .  S
C218        H225   1.087       .  S
C218        C219   1.362       .  D
C219        C220   1.532       .  S
C219        C652   1.480       .  S
C220        C224   1.549       .  S
C220        C222   1.543       .  S
C220        H226   1.107       .  S
C221        H227   1.086       .  S
C221        C222   1.362       .  D
C222        C373   1.476       .  S
C223        H228   1.079       .  S
C223        C224   1.375       .  D
C224        C292   1.508       .  S
C229        C230   1.533       .  S
C229        C235   1.546       .  S
C229        C233   1.543       .  S
C229        C541   1.546       .  S
C230        H237   1.086       .  S
C230        C231   1.363       .  D
C231        C232   1.542       .  S
C231        C337   1.486       .  S
C232        C236   1.539       .  S
C232        C234   1.548       .  S
C232        H238   1.110       .  S
C233        H239   1.086       .  S
C233        C234   1.372       .  D
C234        C364   1.501       .  S
C235        H240   1.081       .  S
C235        C236   1.362       .  D
C236        C592   1.483       .  S
C241        C242   1.544       .  S
C241        C247   1.534       .  S
C241        C245   1.548       .  S
C241        C601   1.548       .  S
C242        H249   1.086       .  S
C242        C243   1.375       .  D
C243        C244   1.543       .  S
C243        C388   1.502       .  S
C244        C248   1.530       .  S
C244        C246   1.537       .  S
C244        H250   1.108       .  S
C245        H251   1.079       .  S
C245        C246   1.367       .  D
C246        C316   1.487       .  S
C247        H252   1.087       .  S
C247        C248   1.360       .  D
C248        C484   1.470       .  S
C253        C254   1.540       .  S
C253        C259   1.530       .  S
C253        C257   1.536       .  S
C253        C532   1.536       .  S
C254        H261   1.080       .  S
C254        C255   1.363       .  D
C255        C256   1.542       .  S
C255        C280   1.483       .  S
C256        C260   1.543       .  S
C256        C258   1.550       .  S
C256        H262   1.109       .  S
C257        H263   1.086       .  S
C257        C258   1.372       .  D
C258        C409   1.501       .  S
C259        H264   1.087       .  S
C259        C260   1.360       .  D
C260        C580   1.480       .  S
C265        C266   1.538       .  S
C265        C271   1.538       .  S
C265        C269   1.544       .  S
C265        C301   1.544       .  S
C266        H273   1.084       .  S
C266        C267   1.369       .  D
C267        C268   1.547       .  S
C267        C517   1.501       .  S
C268        C272   1.536       .  S
C268        C270   1.542       .  S
C268        H274   1.109       .  S
C269        H275   1.080       .  S
C269        C270   1.366       .  D
C270        C565   1.486       .  S
C271        H276   1.086       .  S
C271        C272   1.363       .  D
C272        C400   1.483       .  S
C277        C278   1.404       .  A
C277        C282   1.417       .  A
C278        C279   1.393       .  A
C278        H287   1.084       .  S
C279        C280   1.413       .  A
C279        S283   1.807       .  S
C280        C281   1.403       .  A
C281        C282   1.406       .  A
C281        H288   1.084       .  S
C282        S284   1.801       .  S
S283        H286   1.405       .  S
S284        H285   1.407       .  S
C289        C290   1.402       .  A
C289        C294   1.406       .  A
C290        C291   1.410       .  A
C290        H299   1.083       .  S
C291        C292   1.421       .  A
C291        S295   1.804       .  S
C292        C293   1.412       .  A
C293        C294   1.398       .  A
C293        H300   1.083       .  S
C294        S296   1.805       .  S
S295        H298   1.406       .  S
S296        H297   1.406       .  S
C301        C302   1.414       .  A
C301        C306   1.426       .  A
C302        C303   1.400       .  A
C302        H311   1.073       .  S
C303        C304   1.409       .  A
C303        S307   1.805       .  S
C304        C305   1.399       .  A
C305        C306   1.404       .  A
C305        H312   1.082       .  S
C306        S308   1.811       .  S
S307        H310   1.407       .  S
S308        H309   1.406       .  S
C313        C314   1.407       .  A
C313        C318   1.418       .  A
C314        C315   1.394       .  A
C314        H323   1.083       .  S
C315        C316   1.412       .  A
C315        S319   1.806       .  S
C316        C317   1.404       .  A
C317        C318   1.406       .  A
C317        H324   1.083       .  S
C318        S320   1.798       .  S
S319        H322   1.407       .  S
S320        H321   1.408       .  S
C325        C326   1.402       .  A
C325        C330   1.414       .  A
C326        C327   1.396       .  A
C326        H335   1.084       .  S
C327        C328   1.420       .  A
C327        S331   1.802       .  S
C328        C329   1.409       .  A
C329        C330   1.409       .  A
C329        H336   1.083       .  S
C330        S332   1.799       .  S
S331        H334   1.408       .  S
S332        H333   1.405       .  S
C337        C338   1.402       .  A
C337        C342   1.414       .  A
C338        C339   1.404       .  A
C338        H347   1.083       .  S
C339        C340   1.420       .  A
C339        S343   1.802       .  S
C340        C341   1.404       .  A
C341        C342   1.396       .  A
C341        H348   1.083       .  S
C342        S344   1.802       .  S
S343        H346   1.408       .  S
S344        H345   1.405       .  S
C349        C350   1.404       .  A
C349        C354   1.417       .  A
C350        C351   1.406       .  A
C350        H359   1.084       .  S
C351        C352   1.418       .  A
C351        S355   1.798       .  S
C352        C353   1.404       .  A
C353        C354   1.397       .  A
C353        H360   1.084       .  S
C354        S356   1.808       .  S
S355        H358   1.407       .  S
S356        H357   1.404       .  S
C361        C362   1.401       .  A
C361        C366   1.412       .  A
C362        C363   1.407       .  A
C362        H371   1.083       .  S
C363        C364   1.417       .  A
C363        S367   1.805       .  S
C364        C365   1.409       .  A
C365        C366   1.404       .  A
C365        H372   1.084       .  S
C366        S368   1.808       .  S
S367        H370   1.406       .  S
S368        H369   1.402       .  S
C373        C374   1.398       .  A
C373        C378   1.417       .  A
C374        C375   1.394       .  A
C374        H383   1.084       .  S
C375        C376   1.413       .  A
C375        S379   1.805       .  S
C376        C377   1.402       .  A
C377        C378   1.404       .  A
C377        H384   1.084       .  S
C378        S380   1.806       .  S
S379        H382   1.407       .  S
S380        H381   1.400       .  S
C385        C386   1.400       .  A
C385        C390   1.409       .  A
C386        C387   1.407       .  A
C386        H395   1.083       .  S
C387        C388   1.421       .  A
C387        S391   1.808       .  S
C388        C389   1.409       .  A
C389        C390   1.401       .  A
C389        H396   1.083       .  S
C390        S392   1.804       .  S
S391        H394   1.406       .  S
S392        H393   1.406       .  S
C397        C398   1.408       .  A
C397        C402   1.422       .  A
C398        C399   1.405       .  A
C398        H407   1.082       .  S
C399        C400   1.407       .  A
C399        S403   1.803       .  S
C400        C401   1.400       .  A
C401        C402   1.403       .  A
C401        H408   1.084       .  S
C402        S404   1.802       .  S
S403        H406   1.406       .  S
S404        H405   1.408       .  S
C409        C410   1.410       .  A
C409        C414   1.420       .  A
C410        C411   1.402       .  A
C410        H419   1.084       .  S
C411        C412   1.408       .  A
C411        S415   1.804       .  S
C412        C413   1.400       .  A
C413        C414   1.407       .  A
C413        H420   1.083       .  S
C414        S416   1.806       .  S
S415        H418   1.406       .  S
S416        H417   1.406       .  S
C421        C422   1.401       .  A
C421        C426   1.412       .  A
C422        C423   1.398       .  A
C422        H431   1.084       .  S
C423        C424   1.409       .  A
C423        S427   1.794       .  S
C424        C425   1.404       .  A
C425        C426   1.403       .  A
C425        H432   1.083       .  S
C426        S428   1.804       .  S
S427        H430   1.405       .  S
S428        H429   1.406       .  S
C433        C434   1.412       .  A
C433        C438   1.418       .  A
C434        C435   1.397       .  A
C434        H443   1.083       .  S
C435        C436   1.405       .  A
C435        S439   1.805       .  S
C436        C437   1.401       .  A
C437        C438   1.402       .  A
C437        H444   1.084       .  S
C438        S440   1.798       .  S
S439        H442   1.406       .  S
S440        H441   1.400       .  S
C445        C446   1.402       .  A
C445        C450   1.414       .  A
C446        C447   1.406       .  A
C446        H455   1.084       .  S
C447        C448   1.419       .  A
C447        S451   1.801       .  S
C448        C449   1.406       .  A
C449        C450   1.400       .  A
C449        H456   1.083       .  S
C450        S452   1.806       .  S
S451        H454   1.407       .  S
S452        H453   1.399       .  S
C457        C458   1.400       .  A
C457        C462   1.410       .  A
C458        C459   1.404       .  A
C458        H467   1.082       .  S
C459        C460   1.425       .  A
C459        S463   1.810       .  S
C460        C461   1.413       .  A
C461        C462   1.397       .  A
C461        H468   1.074       .  S
C462        S464   1.804       .  S
S463        H466   1.406       .  S
S464        H465   1.407       .  S
C469        C470   1.414       .  A
C469        C474   1.426       .  A
C470        C471   1.401       .  A
C470        H479   1.075       .  S
C471        C472   1.410       .  A
C471        S475   1.805       .  S
C472        C473   1.399       .  A
C473        C474   1.403       .  A
C473        H480   1.082       .  S
C474        S476   1.812       .  S
S475        H478   1.407       .  S
S476        H477   1.406       .  S
C481        C482   1.409       .  A
C481        C486   1.418       .  A
C482        C483   1.400       .  A
C482        H491   1.082       .  S
C483        C484   1.403       .  A
C483        S487   1.807       .  S
C484        C485   1.398       .  A
C485        C486   1.403       .  A
C485        H492   1.083       .  S
C486        S488   1.808       .  S
S487        H490   1.407       .  S
S488        H489   1.407       .  S
C493        C494   1.404       .  A
C493        C498   1.413       .  A
C494        C495   1.393       .  A
C494        H503   1.084       .  S
C495        C496   1.414       .  A
C495        S499   1.804       .  S
C496        C497   1.404       .  A
C497        C498   1.409       .  A
C497        H504   1.083       .  S
C498        S500   1.802       .  S
S499        H502   1.407       .  S
S500        H501   1.407       .  S
C505        C506   1.407       .  A
C505        C510   1.416       .  A
C506        C507   1.395       .  A
C506        H515   1.083       .  S
C507        C508   1.409       .  A
C507        S511   1.804       .  S
C508        C509   1.403       .  A
C509        C510   1.409       .  A
C509        H516   1.083       .  S
C510        S512   1.806       .  S
S511        H514   1.405       .  S
S512        H513   1.407       .  S
C517        C518   1.408       .  A
C517        C522   1.424       .  A
C518        C519   1.401       .  A
C518        H527   1.082       .  S
C519        C520   1.410       .  A
C519        S523   1.804       .  S
C520        C521   1.397       .  A
C521        C522   1.400       .  A
C521        H528   1.084       .  S
C522        S524   1.802       .  S
S523        H526   1.406       .  S
S524        H525   1.401       .  S
C529        C530   1.402       .  A
C529        C534   1.405       .  A
C530        C531   1.402       .  A
C530        H539   1.083       .  S
C531        C532   1.422       .  A
C531        S535   1.812       .  S
C532        C533   1.413       .  A
C533        C534   1.396       .  A
C533        H540   1.076       .  S
C534        S536   1.801       .  S
S535        H538   1.407       .  S
S536        H537   1.407       .  S
C541        C542   1.415       .  A
C541        C546   1.427       .  A
C542        C543   1.399       .  A
C542        H551   1.075       .  S
C543        C544   1.406       .  A
C543        S547   1.807       .  S
C544        C545   1.396       .  A
C545        C546   1.406       .  A
C545        H552   1.083       .  S
C546        S548   1.809       .  S
S547        H550   1.405       .  S
S548        H549   1.406       .  S
C553        C554   1.404       .  A
C553        C558   1.420       .  A
C554        C555   1.398       .  A
C554        H563   1.082       .  S
C555        C556   1.419       .  A
C555        S559   1.811       .  S
C556        C557   1.405       .  A
C557        C558   1.407       .  A
C557        H564   1.083       .  S
C558        S560   1.798       .  S
S559        H562   1.407       .  S
S560        H561   1.402       .  S
C565        C566   1.399       .  A
C565        C570   1.414       .  A
C566        C567   1.403       .  A
C566        H575   1.084       .  S
C567        C568   1.420       .  A
C567        S571   1.793       .  S
C568        C569   1.406       .  A
C569        C570   1.399       .  A
C569        H576   1.083       .  S
C570        S572   1.805       .  S
S571        H574   1.405       .  S
S572        H573   1.407       .  S
C577        C578   1.404       .  A
C577        C582   1.418       .  A
C578        C579   1.396       .  A
C578        H587   1.084       .  S
C579        C580   1.413       .  A
C579        S583   1.805       .  S
C580        C581   1.402       .  A
C581        C582   1.405       .  A
C581        H588   1.084       .  S
C582        S584   1.802       .  S
S583        H586   1.401       .  S
S584        H585   1.407       .  S
C589        C590   1.409       .  A
C589        C594   1.419       .  A
C590        C591   1.401       .  A
C590        H599   1.083       .  S
C591        C592   1.409       .  A
C591        S595   1.800       .  S
C592        C593   1.400       .  A
C593        C594   1.403       .  A
C593        H600   1.084       .  S
C594        S596   1.794       .  S
S595        H598   1.404       .  S
S596        H597   1.406       .  S
C601        C602   1.414       .  A
C601        C606   1.425       .  A
C602        C603   1.401       .  A
C602        H611   1.074       .  S
C603        C604   1.411       .  A
C603        S607   1.805       .  S
C604        C605   1.402       .  A
C605        C606   1.407       .  A
C605        H612   1.082       .  S
C606        S608   1.811       .  S
S607        H610   1.407       .  S
S608        H609   1.406       .  S
C613        C614   1.400       .  A
C613        C618   1.410       .  A
C614        C615   1.403       .  A
C614        H623   1.082       .  S
C615        C616   1.425       .  A
C615        S619   1.813       .  S
C616        C617   1.414       .  A
C617        C618   1.399       .  A
C617        H624   1.074       .  S
C618        S620   1.805       .  S
S619        H622   1.406       .  S
S620        H621   1.407       .  S
C625        C626   1.400       .  A
C625        C630   1.416       .  A
C626        C627   1.400       .  A
C626        H635   1.084       .  S
C627        C628   1.418       .  A
C627        S631   1.794       .  S
C628        C629   1.406       .  A
C629        C630   1.401       .  A
C629        H636   1.083       .  S
C630        S632   1.802       .  S
S631        H634   1.407       .  S
S632        H633   1.403       .  S
C637        C638   1.413       .  A
C637        C642   1.422       .  A
C638        C639   1.396       .  A
C638        H647   1.075       .  S
C639        C640   1.405       .  A
C639        S643   1.796       .  S
C640        C641   1.403       .  A
C641        C642   1.405       .  A
C641        H648   1.082       .  S
C642        S644   1.810       .  S
S643        H646   1.407       .  S
S644        H645   1.406       .  S
C649        C650   1.407       .  A
C649        C654   1.415       .  A
C650        C651   1.397       .  A
C650        H659   1.083       .  S
C651        C652   1.409       .  A
C651        S655   1.804       .  S
C652        C653   1.402       .  A
C653        C654   1.401       .  A
C653        H660   1.080       .  S
C654        S656   1.803       .  S
S655        H658   1.406       .  S
S656        H657   1.407       .  S
