geometry optimzed in LAMMPS
_audit_creation_date              2020-11-30 
_audit_creation_method            'lammps2cif' 
_symmetry_space_group_name_H-M    'P1' 
_symmetry_Int_Tables_number       1 
_symmetry_cell_setting            triclinic 
loop_ 
_symmetry_equiv_pos_as_xyz 
  x,y,z 
_cell_length_a                    41.000573139447454 
_cell_length_b                    40.472354957322494 
_cell_length_c                    23.836068145154147 
_cell_angle_alpha                 90.13391502551795 
_cell_angle_beta                  89.9645220899762 
_cell_angle_gamma                 89.61178862227013 
loop_ 
_atom_site_label 
_atom_site_type_symbol 
_atom_site_fract_x 
_atom_site_fract_y 
_atom_site_fract_z 
_atom_site_charge 
C1          C  0.25656190  0.50361168  0.47152201     0.01720
C2          C  0.26178365  0.00000504  0.02868549     0.01720
C3          C  0.24041123  0.09931201  0.20433385     0.04280
C4          C  0.24268190  0.08385746  0.25679835    -0.11870
C5          C  0.24445069  0.10252071  0.30611361     0.01780
C6          C  0.24442591  0.13693036  0.30337073    -0.10390
C7          C  0.24261877  0.15305804  0.25126059     0.04270
C8          C  0.23995215  0.13408352  0.20182476    -0.09810
H9          H  0.24413287  0.05715215  0.25923156     0.09870
H10         H  0.24663540  0.15097309  0.34195144     0.07400
H11         H  0.23861464  0.14619585  0.16136138     0.07240
C12         C  0.25008074  0.40500375  0.20122429     0.04280
C13         C  0.24416988  0.42094717  0.25235652    -0.11870
C14         C  0.24125692  0.40287563  0.30210175     0.01780
C15         C  0.24259840  0.36841927  0.30053011    -0.10390
C16         C  0.24725008  0.35174421  0.24922013     0.04270
C17         C  0.25126307  0.37024163  0.19968016    -0.09810
H18         H  0.24416053  0.44771728  0.25413376     0.09830
H19         H  0.24112046  0.35481335  0.33957776     0.07400
H20         H  0.25627537  0.35773763  0.16033345     0.07240
C21         C  0.99752084  0.24698020  0.46921644     0.01720
C22         C  0.99815363  0.24721126  0.02726729     0.01720
C23         C  0.09820866  0.25145198  0.19627354     0.04280
C24         C  0.13229952  0.25263485  0.19676934    -0.11870
C25         C  0.14928800  0.25479742  0.24803205     0.01780
C26         C  0.13162958  0.25613761  0.29878919    -0.10390
C27         C  0.09746506  0.25502649  0.29826796     0.04270
C28         C  0.08109643  0.25264395  0.24697127    -0.09810
H29         H  0.14543945  0.25114495  0.15736423     0.09870
H30         H  0.14429335  0.25797230  0.33859564     0.07400
H31         H  0.05469841  0.25145610  0.24650286     0.07240
C32         C  0.39718463  0.24623460  0.19748447     0.04280
C33         C  0.41379328  0.24359707  0.24849702    -0.11870
C34         C  0.39703426  0.24257976  0.29958478     0.01780
C35         C  0.36283209  0.24426890  0.29948227    -0.10390
C36         C  0.34555965  0.24709339  0.24845887     0.04270
C37         C  0.36302962  0.24790273  0.19742487    -0.09810
H38         H  0.44023223  0.24281797  0.24843422     0.09870
H39         H  0.34981957  0.24331018  0.33901825     0.07400
H40         H  0.35026392  0.25048604  0.15783881     0.07240
O41         O  0.24570337  0.20589193  0.29451857    -0.70630
O42         O  0.24845969  0.29922111  0.29375831    -0.70840
O43         O  0.20102143  0.25424483  0.29400250    -0.70700
O44         O  0.29363109  0.25060952  0.29402358    -0.70710
O45         O  0.29366038  0.24999388  0.20296123    -0.70670
O46         O  0.20117546  0.25404705  0.20291679    -0.70690
O47         O  0.24884197  0.29915026  0.20268309    -0.70630
O48         O  0.24544491  0.20507773  0.20345646    -0.70820
V49         V  0.24729083  0.25251672  0.29225317     1.35240
V50         V  0.24735874  0.25211221  0.20472611     1.35170
C51         C  0.24461056  0.18949136  0.24940744     0.78610
C52         C  0.24846924  0.31522254  0.24831256     0.78670
C53         C  0.18529365  0.25452775  0.24838885     0.78540
C54         C  0.30948317  0.24936093  0.24849252     0.78500
C55         C  0.07933682  0.24726381  0.14356185    -0.04190
C56         C  0.07638000  0.27323257  0.10464682    -0.01300
C57         C  0.05220478  0.27208168  0.06228024     0.03690
C58         C  0.02959394  0.24553176  0.06062763    -0.04180
C59         C  0.03476179  0.21838472  0.09746761    -0.01290
C60         C  0.06018420  0.21887954  0.13703343     0.03680
C61         C  0.09666533  0.30227029  0.11082554     0.38330
C62         C  0.01414457  0.18944812  0.09583590     0.38320
C63         C  0.06619175  0.19038841  0.17271408     0.36750
C64         C  0.04919231  0.30009439  0.02492325     0.36750
N65         N  0.07121111  0.16776428  0.20111019    -0.38070
N66         N  0.54769593  0.32350129  0.99723886    -0.38070
N67         N  0.99903052  0.16541147  0.09653084    -0.37520
N68         N  0.11276141  0.32546573  0.11590493    -0.37520
C69         C  0.07760032  0.25646131  0.35053569    -0.04190
C70         C  0.07799045  0.23017076  0.38918628    -0.01300
C71         C  0.05360099  0.22797788  0.43113968     0.03690
C72         C  0.02786351  0.25176172  0.43364284    -0.04180
C73         C  0.02926704  0.27928424  0.39660936    -0.01290
C74         C  0.05444267  0.28195498  0.35676870     0.03680
C75         C  0.10229985  0.20413190  0.38340698     0.38330
C76         C  0.00515109  0.30561799  0.39850068     0.38320
C77         C  0.05614770  0.31082264  0.32066584     0.36750
C78         C  0.05417691  0.19947672  0.46770026     0.36750
N79         N  0.05757722  0.33375354  0.29187331    -0.38070
N80         N  0.05582026  0.17582340  0.49475281    -0.38070
N81         N  0.48717656  0.32777781  0.39760840    -0.37520
N82         N  0.12167768  0.18337854  0.37874644    -0.37520
C83         C  0.41696084  0.24955325  0.14540528    -0.04190
C84         C  0.43808328  0.27657134  0.14073014    -0.01300
C85         C  0.46369982  0.27607400  0.10143640     0.03690
C86         C  0.46756686  0.24916326  0.06324862    -0.04180
C87         C  0.44394464  0.22350366  0.06463169    -0.01290
C88         C  0.41896447  0.22373213  0.10582027     0.03680
C89         C  0.43382432  0.30479254  0.17802404     0.38330
C90         C  0.44636567  0.19510487  0.02780535     0.38320
C91         C  0.39633359  0.19641645  0.10949629     0.36750
C92         C  0.48574214  0.30391489  0.10179567     0.36750
N93         N  0.37824433  0.17465683  0.11227848    -0.38070
N94         N  0.00197752  0.32711347  0.10516878    -0.38070
N95         N  0.44734691  0.17149630  0.00036431    -0.37520
N96         N  0.43033096  0.32718300  0.20776483    -0.37520
C97         C  0.46648470  0.24252827  0.43537154    -0.04190
C98         C  0.44112403  0.26671448  0.43433009    -0.01300
C99         C  0.41679172  0.26571201  0.39213243     0.03690
C100        C  0.41658618  0.23990619  0.35223802    -0.04180
C101        C  0.43902045  0.21365598  0.35779737    -0.01290
C102        C  0.46431322  0.21534226  0.39760606     0.03680
C103        C  0.44109878  0.29450996  0.47269700     0.38330
C104        C  0.43660071  0.18512619  0.32084694     0.38320
C105        C  0.48786836  0.18847446  0.39864100     0.36750
C106        C  0.39339364  0.29261574  0.38728736     0.36750
N107        N  0.00540329  0.16596184  0.39728398    -0.38070
N108        N  0.37477306  0.31410508  0.38339396    -0.38070
N109        N  0.43464265  0.16249217  0.29130451    -0.37520
N110        N  0.44018043  0.31751351  0.50159109    -0.37520
C111        C  0.24252244  0.07834680  0.15266331    -0.04190
C112        C  0.22027989  0.05247188  0.14405140    -0.01300
C113        C  0.22653968  0.02774531  0.10332266     0.03690
C114        C  0.25479686  0.02892115  0.06860131    -0.04180
C115        C  0.27643781  0.05604056  0.07652706    -0.01290
C116        C  0.26988831  0.08068733  0.11735025     0.03680
C117        C  0.19095298  0.05105674  0.17816233     0.38330
C118        C  0.30797916  0.05777402  0.05004205     0.38320
C119        C  0.29300189  0.10737754  0.12599795     0.36750
C120        C  0.20430764  0.00013395  0.10033492     0.36750
N121        N  0.31137519  0.12860348  0.13273842    -0.38070
N122        N  0.18600429  0.47850605  0.10068745    -0.38070
N123        N  0.33445992  0.06219514  0.03516105    -0.37520
N124        N  0.16761854  0.05002462  0.20542881    -0.37520
C125        C  0.24867181  0.08529838  0.36031160    -0.04190
C126        C  0.22129490  0.07648776  0.39237071    -0.01300
C127        C  0.22459786  0.05318404  0.43593685     0.03690
C128        C  0.25497157  0.03731133  0.44514057    -0.04180
C129        C  0.28316873  0.05055662  0.41924731    -0.01290
C130        C  0.27989493  0.07447440  0.37672426     0.03680
C131        C  0.18957206  0.09040423  0.37880746     0.38330
C132        C  0.31528310  0.03671456  0.43046070     0.38320
C133        C  0.30841745  0.08611934  0.34677728     0.36750
C134        C  0.19693902  0.04672216  0.47178665     0.36750
N135        N  0.33110444  0.09540320  0.32276238    -0.38070
N136        N  0.17436897  0.04344289  0.50034843    -0.38070
N137        N  0.34081488  0.02489328  0.43689935    -0.37520
N138        N  0.16432728  0.10158525  0.36781353    -0.37520
C139        C  0.25790058  0.42522000  0.15075300    -0.04190
C140        C  0.28506324  0.44656646  0.15091817    -0.01300
C141        C  0.29065079  0.46776485  0.10498811     0.03690
C142        C  0.26976521  0.46721168  0.05771528    -0.04180
C143        C  0.24978725  0.43894300  0.05226251    -0.01290
C144        C  0.23982270  0.42204253  0.10083762     0.03680
C145        C  0.30756859  0.44681346  0.19777714     0.38330
C146        C  0.25691609  0.41638691  0.00695185     0.38320
C147        C  0.21293618  0.39905721  0.09711619     0.36750
C148        C  0.31938476  0.48828989  0.10521134     0.36750
N149        N  0.19145533  0.38074200  0.09402528    -0.38070
N150        N  0.34331565  0.00322277  0.10749820    -0.38070
N151        N  0.26318863  0.39619630  0.97417368    -0.37520
N152        N  0.32620583  0.44757055  0.23413394    -0.37520
C153        C  0.24434580  0.42108682  0.35552800    -0.04190
C154        C  0.21697932  0.43369581  0.38413987    -0.01300
C155        C  0.22107744  0.45895477  0.42497179     0.03690
C156        C  0.25191939  0.47488137  0.43098791    -0.04180
C157        C  0.27726764  0.46412528  0.39420979    -0.01290
C158        C  0.27519239  0.43312383  0.36913795     0.03680
C159        C  0.18510197  0.42003307  0.37247787     0.38330
C160        C  0.29332432  0.48698755  0.35725136     0.38320
C161        C  0.30448945  0.41668742  0.34892917     0.36750
C162        C  0.19322882  0.46812661  0.45877540     0.36750
N163        N  0.32786071  0.40311985  0.33393234    -0.38070
N164        N  0.16964536  0.47352068  0.48389771    -0.38070
N165        N  0.30525480  0.00351185  0.32344790    -0.37520
N166        N  0.15972457  0.40893620  0.36321375    -0.37520
C167        C  0.25650000  0.50360733  0.97150380     0.01720
C168        C  0.26186305  0.00002153  0.52870222     0.01720
C169        C  0.24046886  0.09932899  0.70432831     0.04280
C170        C  0.24273945  0.08387234  0.75679093    -0.11870
C171        C  0.24449161  0.10253332  0.80611039     0.01780
C172        C  0.24445370  0.13694343  0.80337325    -0.10390
C173        C  0.24264917  0.15307250  0.75126403     0.04270
C174        C  0.23999734  0.13409968  0.70182427    -0.09810
H175        H  0.24419698  0.05716722  0.75922061     0.09870
H176        H  0.24664857  0.15098562  0.84195707     0.07400
H177        H  0.23865899  0.14621327  0.66136204     0.07240
C178        C  0.25006380  0.40501065  0.70117561     0.04280
C179        C  0.24411393  0.42095954  0.75229145    -0.11870
C180        C  0.24117877  0.40289443  0.80203895     0.01780
C181        C  0.24253291  0.36843793  0.80048219    -0.10390
C182        C  0.24721978  0.35175768  0.74918663     0.04270
C183        C  0.25125706  0.37024917  0.69964690    -0.09810
H184        H  0.24409995  0.44772988  0.75406018     0.09830
H185        H  0.24103975  0.35483635  0.83953245     0.07400
H186        H  0.25630271  0.35774116  0.66031634     0.07240
C187        C  0.99752303  0.24701985  0.96921408     0.01720
C188        C  0.99815721  0.24717361  0.52726933     0.01720
C189        C  0.09821075  0.25143901  0.69626800     0.04280
C190        C  0.13230134  0.25262298  0.69676408    -0.11870
C191        C  0.14928904  0.25479587  0.74802565     0.01780
C192        C  0.13163019  0.25614533  0.79878153    -0.10390
C193        C  0.09746570  0.25503358  0.79826034     0.04270
C194        C  0.08109739  0.25264028  0.74696447    -0.09810
H195        H  0.14544172  0.25112666  0.65735998     0.09870
H196        H  0.14429368  0.25798842  0.83858739     0.07400
H197        H  0.05469961  0.25145202  0.74649583     0.07240
C198        C  0.39718342  0.24622851  0.69747936     0.04280
C199        C  0.41379231  0.24360137  0.74849276    -0.11870
C200        C  0.39703445  0.24260199  0.79958246     0.01780
C201        C  0.36283261  0.24429905  0.79948082    -0.10390
C202        C  0.34555995  0.24711367  0.74845585     0.04270
C203        C  0.36302905  0.24790490  0.69741997    -0.09810
H204        H  0.44023119  0.24281755  0.74842864     0.09870
H205        H  0.34982052  0.24335330  0.83901825     0.07400
H206        H  0.35026342  0.25048064  0.65783242     0.07240
O207        O  0.24571556  0.20590850  0.79452118    -0.70630
O208        O  0.24844781  0.29923959  0.79374288    -0.70840
O209        O  0.20102187  0.25425139  0.79399635    -0.70700
O210        O  0.29363170  0.25063751  0.79401920    -0.70710
O211        O  0.29366152  0.25001323  0.70295691    -0.70670
O212        O  0.20117639  0.25404990  0.70291057    -0.70690
O213        O  0.24883386  0.29916101  0.70266747    -0.70630
O214        O  0.24545594  0.20509039  0.70345898    -0.70820
V215        V  0.24729128  0.25253416  0.79224763     1.35240
V216        V  0.24735988  0.25212392  0.70472046     1.35170
C217        C  0.24462748  0.18950593  0.74941160     0.78610
C218        C  0.24845366  0.31523688  0.74829264     0.78670
C219        C  0.18529441  0.25453007  0.74838253     0.78540
C220        C  0.30948393  0.24938476  0.74848867     0.78500
C221        C  0.07934124  0.24724295  0.64355636    -0.04190
C222        C  0.07638221  0.27320796  0.60463490    -0.01300
C223        C  0.05220823  0.27205035  0.56226731     0.03690
C224        C  0.02960072  0.24549740  0.56062063    -0.04180
C225        C  0.03477334  0.21835255  0.59746324    -0.01290
C226        C  0.06019433  0.21885458  0.63703159     0.03680
C227        C  0.09666281  0.30224945  0.61080924     0.38330
C228        C  0.01416134  0.18941213  0.59583327     0.38320
C229        C  0.06620635  0.19036709  0.67271820     0.36750
C230        C  0.04919105  0.30006140  0.52490765     0.36750
N231        N  0.07122983  0.16774580  0.70111873    -0.38070
N232        N  0.54769059  0.32346808  0.49722333    -0.38070
N233        N  0.99905134  0.16537286  0.59652828    -0.37520
N234        N  0.11275484  0.32544805  0.61588507    -0.37520
C235        C  0.07760174  0.25647825  0.85052834    -0.04190
C236        C  0.07799105  0.23019373  0.88919046    -0.01300
C237        C  0.05360336  0.22800963  0.93114827     0.03690
C238        C  0.02786911  0.25179732  0.93364654    -0.04180
C239        C  0.02927628  0.27931627  0.89660564    -0.01290
C240        C  0.05444838  0.28197639  0.85675553     0.03680
C241        C  0.10229715  0.20415115  0.88341797     0.38330
C242        C  0.00516715  0.30565635  0.89849844     0.38320
C243        C  0.05615416  0.31083738  0.82063759     0.36750
C244        C  0.05417700  0.19951217  0.96771710     0.36750
N245        N  0.05758444  0.33376291  0.79183283    -0.38070
N246        N  0.05581906  0.17586092  0.99477503    -0.38070
N247        N  0.48719817  0.32782083  0.89760883    -0.37520
N248        N  0.12167231  0.18339485  0.87876265    -0.37520
C249        C  0.41696049  0.24953605  0.64539997    -0.04190
C250        C  0.43808439  0.27655201  0.64071629    -0.01300
C251        C  0.46370805  0.27604345  0.60143757     0.03690
C252        C  0.46757401  0.24912827  0.56325808    -0.04180
C253        C  0.44395016  0.22347045  0.56464714    -0.01290
C254        C  0.41896759  0.22370644  0.60583147     0.03680
C255        C  0.43381938  0.30478287  0.67798758     0.38330
C256        C  0.44637137  0.19506753  0.52782981     0.38320
C257        C  0.39633695  0.19639137  0.60951911     0.36750
C258        C  0.48575822  0.30387779  0.60180633     0.36750
N259        N  0.37824821  0.17463178  0.61231040    -0.38070
N260        N  0.00199953  0.32707145  0.60519296    -0.38070
N261        N  0.44735377  0.17145710  0.50039347    -0.37520
N262        N  0.43032063  0.32718113  0.70770959    -0.37520
C263        C  0.46648961  0.24256844  0.93536235    -0.04190
C264        C  0.44113009  0.26675561  0.93431374    -0.01300
C265        C  0.41679771  0.26574986  0.89211628     0.03690
C266        C  0.41658796  0.23993681  0.85223522    -0.04180
C267        C  0.43902115  0.21368630  0.85780381    -0.01290
C268        C  0.46431784  0.21537919  0.89760375     0.03680
C269        C  0.44110532  0.29455344  0.97267569     0.38330
C270        C  0.43659606  0.18514874  0.82087164     0.38320
C271        C  0.48787584  0.18851390  0.89863761     0.36750
C272        C  0.39340406  0.29265661  0.88725761     0.36750
N273        N  0.00541296  0.16600306  0.89727849    -0.38070
N274        N  0.37478728  0.31414859  0.88335266    -0.38070
N275        N  0.43463371  0.16250844  0.79134404    -0.37520
N276        N  0.44018762  0.31755812  0.00156722    -0.37520
C277        C  0.24258135  0.07836721  0.65265517    -0.04190
C278        C  0.22034514  0.05248610  0.64405183    -0.01300
C279        C  0.22661282  0.02775539  0.60333571     0.03690
C280        C  0.25486564  0.02893964  0.56860528    -0.04180
C281        C  0.27649864  0.05606599  0.57651782    -0.01290
C282        C  0.26994431  0.08071410  0.61733604     0.03680
C283        C  0.19101863  0.05106672  0.67816383     0.38330
C284        C  0.30804288  0.05779535  0.55004076     0.38320
C285        C  0.29305115  0.10741062  0.62597532     0.36750
C286        C  0.20440218  0.00012496  0.60039100     0.36750
N287        N  0.31141903  0.12864191  0.63271009    -0.38070
N288        N  0.18611677  0.47848186  0.60079021    -0.38070
N289        N  0.33452684  0.06220431  0.53516590    -0.37520
N290        N  0.16768450  0.05003132  0.70543067    -0.37520
C291        C  0.24869443  0.08530773  0.86030954    -0.04190
C292        C  0.22130734  0.07652482  0.89236613    -0.01300
C293        C  0.22458525  0.05321579  0.93592949     0.03690
C294        C  0.25494276  0.03731119  0.94513326    -0.04180
C295        C  0.28315431  0.05052975  0.91924705    -0.01290
C296        C  0.27990621  0.07445091  0.87672425     0.03680
C297        C  0.18959821  0.09047263  0.87879970     0.38330
C298        C  0.31525625  0.03666342  0.93048172     0.38320
C299        C  0.30844190  0.08606888  0.84678405     0.36750
C300        C  0.19691905  0.04678219  0.97177763     0.36750
N301        N  0.33113946  0.09533138  0.82277452    -0.38070
N302        N  0.17434511  0.04352540  0.00033824    -0.38070
N303        N  0.34077799  0.02482465  0.93694629    -0.37520
N304        N  0.16436435  0.10167827  0.86780313    -0.37520
C305        C  0.25793117  0.42522238  0.65072158    -0.04190
C306        C  0.28508260  0.44658375  0.65097540    -0.01300
C307        C  0.29069583  0.46780037  0.60507992     0.03690
C308        C  0.26985718  0.46723555  0.55774511    -0.04180
C309        C  0.24992772  0.43893932  0.55220460    -0.01290
C310        C  0.23991418  0.42203194  0.60074149     0.03680
C311        C  0.30755385  0.44682070  0.69788315     0.38330
C312        C  0.25718729  0.41638334  0.50695194     0.38320
C313        C  0.21305085  0.39902601  0.59691595     0.36750
C314        C  0.31940466  0.48836088  0.60541467     0.36750
N315        N  0.19158773  0.38069436  0.59374163    -0.38070
N316        N  0.34331357  0.00332447  0.60780009    -0.38070
N317        N  0.26356533  0.39620417  0.47421245    -0.37520
N318        N  0.32616685  0.44756522  0.73427748    -0.37520
C319        C  0.24425180  0.42111189  0.85546226    -0.04190
C320        C  0.21688069  0.43376265  0.88401063    -0.01300
C321        C  0.22098593  0.45900848  0.92486437     0.03690
C322        C  0.25184730  0.47488648  0.93095519    -0.04180
C323        C  0.27720493  0.46410066  0.89422289    -0.01290
C324        C  0.27510650  0.43310158  0.86914802     0.03680
C325        C  0.18499242  0.42014697  0.87227795     0.38330
C326        C  0.29328804  0.48694615  0.85726837     0.38320
C327        C  0.30439651  0.41663171  0.84898717     0.36750
C328        C  0.19313213  0.46820406  0.95863769     0.36750
N329        N  0.32776105  0.40303949  0.83402305    -0.38070
N330        N  0.16954651  0.47361894  0.98374174    -0.38070
N331        N  0.30523776  0.00346109  0.82347189    -0.37520
N332        N  0.15960605  0.40908696  0.86295806    -0.37520
C333        C  0.25656650  0.00361185  0.47152247     0.01720
C334        C  0.26177932  0.50000524  0.02868503     0.01720
C335        C  0.24040827  0.59931249  0.20433326     0.04280
C336        C  0.24267856  0.58385781  0.25679772    -0.11870
C337        C  0.24444768  0.60252094  0.30611310     0.01780
C338        C  0.24442370  0.63693059  0.30337037    -0.10390
C339        C  0.24261696  0.65305838  0.25126031     0.04270
C340        C  0.23994989  0.63408401  0.20182439    -0.09810
H341        H  0.24412899  0.55715247  0.25923082     0.09870
H342        H  0.24663349  0.65097320  0.34195114     0.07400
H343        H  0.23861258  0.64619645  0.16136109     0.07240
C344        C  0.25008408  0.90500384  0.20122423     0.04280
C345        C  0.24417353  0.92094748  0.25235633    -0.11870
C346        C  0.24126008  0.90287611  0.30210161     0.01780
C347        C  0.24260073  0.86841970  0.30053015    -0.10390
C348        C  0.24725205  0.85174445  0.24922026     0.04270
C349        C  0.25126559  0.87024170  0.19968025    -0.09810
H350        H  0.24416479  0.94771759  0.25413342     0.09830
H351        H  0.24112240  0.85481387  0.33957786     0.07400
H352        H  0.25627764  0.85773753  0.16033360     0.07240
C353        C  0.99752086  0.74698031  0.46921635     0.01720
C354        C  0.99815368  0.74721125  0.02726737     0.01720
C355        C  0.09820874  0.75145298  0.19627345     0.04280
C356        C  0.13229960  0.75263602  0.19676930    -0.11870
C357        C  0.14928806  0.75479863  0.24803203     0.01780
C358        C  0.13162961  0.75613873  0.29878916    -0.10390
C359        C  0.09746508  0.75502747  0.29826789     0.04270
C360        C  0.08109649  0.75264486  0.24697117    -0.09810
H361        H  0.14543955  0.75114614  0.15736420     0.09870
H362        H  0.14429336  0.75797342  0.33859563     0.07400
H363        H  0.05469849  0.75145684  0.24650272     0.07240
C364        C  0.39718467  0.74623406  0.19748444     0.04280
C365        C  0.41379333  0.74359658  0.24849698    -0.11870
C366        C  0.39703433  0.74257920  0.29958475     0.01780
C367        C  0.36283214  0.74426820  0.29948224    -0.10390
C368        C  0.34555968  0.74709266  0.24845885     0.04270
C369        C  0.36302966  0.74790205  0.19742485    -0.09810
H370        H  0.44023229  0.74281762  0.24843417     0.09870
H371        H  0.34981962  0.74330946  0.33901823     0.07400
H372        H  0.35026394  0.75048537  0.15783881     0.07240
O373        O  0.24570274  0.70589216  0.29451847    -0.70630
O374        O  0.24846043  0.79922132  0.29375846    -0.70840
O375        O  0.20102149  0.75424568  0.29400253    -0.70700
O376        O  0.29363114  0.75060909  0.29402361    -0.70710
O377        O  0.29366042  0.74999344  0.20296125    -0.70670
O378        O  0.20117554  0.75404805  0.20291682    -0.70690
O379        O  0.24884280  0.79915049  0.20268324    -0.70630
O380        O  0.24544419  0.70507806  0.20345637    -0.70820
V381        V  0.24729088  0.75251693  0.29225320     1.35240
V382        V  0.24735879  0.75211249  0.20472614     1.35170
C383        C  0.24460956  0.68949165  0.24940730     0.78610
C384        C  0.24847036  0.81522276  0.24831273     0.78670
C385        C  0.18529372  0.75452881  0.24838887     0.78540
C386        C  0.30948320  0.74936036  0.24849253     0.78500
C387        C  0.07933695  0.74726461  0.14356176    -0.04190
C388        C  0.07637984  0.77323335  0.10464676    -0.01300
C389        C  0.05220462  0.77208221  0.06228021     0.03690
C390        C  0.02959404  0.74553206  0.06062763    -0.04180
C391        C  0.03476219  0.71838506  0.09746758    -0.01290
C392        C  0.06018463  0.71888013  0.13703333     0.03680
C393        C  0.09666487  0.80227128  0.11082550     0.38330
C394        C  0.01414524  0.68944826  0.09583592     0.38320
C395        C  0.06619252  0.69038904  0.17271393     0.36750
C396        C  0.04919181  0.80009492  0.02492329     0.36750
N397        N  0.07121215  0.66776495  0.20110997    -0.38070
N398        N  0.54769543  0.82350197  0.99723865    -0.38070
N399        N  0.99903139  0.66541148  0.09653088    -0.37520
N400        N  0.11276070  0.82546690  0.11590490    -0.37520
C401        C  0.07760030  0.75646209  0.35053561    -0.04190
C402        C  0.07799061  0.73017152  0.38918616    -0.01300
C403        C  0.05360116  0.72797844  0.43113956     0.03690
C404        C  0.02786349  0.75176207  0.43364273    -0.04180
C405        C  0.02926682  0.77928461  0.39660925    -0.01290
C406        C  0.05444244  0.78195557  0.35676862     0.03680
C407        C  0.10230019  0.70413283  0.38340682     0.38330
C408        C  0.00515065  0.80561816  0.39850054     0.38320
C409        C  0.05614726  0.81082326  0.32066581     0.36750
C410        C  0.05417730  0.69947728  0.46770014     0.36750
N411        N  0.05757661  0.83375418  0.29187330    -0.38070
N412        N  0.05582084  0.67582398  0.49475271    -0.38070
N413        N  0.48717594  0.82777794  0.39760845    -0.37520
N414        N  0.12167815  0.68337960  0.37874624    -0.37520
C415        C  0.41696086  0.74955287  0.14540525    -0.04190
C416        C  0.43808307  0.77657115  0.14073007    -0.01300
C417        C  0.46369955  0.77607406  0.10143620     0.03690
C418        C  0.46756680  0.74916336  0.06324843    -0.04180
C419        C  0.44394481  0.72350354  0.06463156    -0.01290
C420        C  0.41896466  0.72373178  0.10582020     0.03680
C421        C  0.43382394  0.80479229  0.17802406     0.38330
C422        C  0.44636605  0.69510478  0.02780519     0.38320
C423        C  0.39633401  0.69641591  0.10949626     0.36750
C424        C  0.48574157  0.80391521  0.10179525     0.36750
N425        N  0.37824492  0.67465614  0.11227850    -0.38070
N426        N  0.00197710  0.82711328  0.10516961    -0.38070
N427        N  0.44734746  0.67149622  0.00036414    -0.37520
N428        N  0.43033045  0.82718269  0.20776493    -0.37520
C429        C  0.46648475  0.74252821  0.43537156    -0.04190
C430        C  0.44112391  0.76671424  0.43433010    -0.01300
C431        C  0.41679162  0.76571160  0.39213241     0.03690
C432        C  0.41658626  0.73990577  0.35223801    -0.04180
C433        C  0.43902071  0.71365573  0.35779738    -0.01290
C434        C  0.46431348  0.71534219  0.39760607     0.03680
C435        C  0.44109845  0.79450970  0.47269704     0.38330
C436        C  0.43660117  0.68512591  0.32084697     0.38320
C437        C  0.48786882  0.68847458  0.39864099     0.36750
C438        C  0.39339338  0.79261519  0.38728731     0.36750
N439        N  0.00540394  0.66596201  0.39728388    -0.38070
N440        N  0.37477267  0.81410441  0.38339388    -0.38070
N441        N  0.43464326  0.66249186  0.29130457    -0.37520
N442        N  0.44017993  0.81751323  0.50159117    -0.37520
C443        C  0.24251905  0.57834734  0.15266255    -0.04190
C444        C  0.22027621  0.55247263  0.14405082    -0.01300
C445        C  0.22653568  0.52774598  0.10332207     0.03690
C446        C  0.25479268  0.52892164  0.06860030    -0.04180
C447        C  0.27643372  0.55604105  0.07652536    -0.01290
C448        C  0.26988469  0.58068775  0.11734891     0.03680
C449        C  0.19094938  0.55105775  0.17816195     0.38330
C450        C  0.30797469  0.55777460  0.05003897     0.38320
C451        C  0.29299855  0.60737775  0.12599626     0.36750
C452        C  0.20430361  0.50013461  0.10033489     0.36750
N453        N  0.31137209  0.62860352  0.13273640    -0.38070
N454        N  0.18600822  0.97850547  0.10068707    -0.38070
N455        N  0.33445520  0.56219572  0.03515662    -0.37520
N456        N  0.16761498  0.55002585  0.20542856    -0.37520
C457        C  0.24866841  0.58529844  0.36031105    -0.04190
C458        C  0.22129125  0.57648787  0.39236961    -0.01300
C459        C  0.22459380  0.55318395  0.43593553     0.03690
C460        C  0.25496735  0.53731099  0.44513955    -0.04180
C461        C  0.28316474  0.55055587  0.41924642    -0.01290
C462        C  0.27989136  0.57447403  0.37672390     0.03680
C463        C  0.18956857  0.59040458  0.37880596     0.38330
C464        C  0.31527877  0.53671254  0.43045861     0.38320
C465        C  0.30841411  0.58611874  0.34677729     0.36750
C466        C  0.19693462  0.54672172  0.47178437     0.36750
N467        N  0.33110126  0.59540241  0.32276265    -0.38070
N468        N  0.17436432  0.54344204  0.50034544    -0.38070
N469        N  0.34081015  0.52489029  0.43689677    -0.37520
N470        N  0.16432392  0.60158576  0.36781170    -0.37520
C471        C  0.25790427  0.92521981  0.15075282    -0.04190
C472        C  0.28506731  0.94656578  0.15091775    -0.01300
C473        C  0.29065515  0.96776398  0.10498756     0.03690
C474        C  0.26976938  0.96721122  0.05771501    -0.04180
C475        C  0.24979088  0.93894292  0.05226241    -0.01290
C476        C  0.23982623  0.92204258  0.10083757     0.03680
C477        C  0.30757270  0.94681250  0.19777667     0.38330
C478        C  0.25691900  0.91638676  0.00695151     0.38320
C479        C  0.21293929  0.89905775  0.09711642     0.36750
C480        C  0.31938962  0.98828830  0.10521018     0.36750
N481        N  0.19145809  0.88074294  0.09402574    -0.38070
N482        N  0.34331038  0.50322500  0.10749997    -0.38070
N483        N  0.26319090  0.89619606  0.97417315    -0.37520
N484        N  0.32620994  0.94756937  0.23413349    -0.37520
C485        C  0.24434930  0.92108736  0.35552774    -0.04190
C486        C  0.21698305  0.93369687  0.38413949    -0.01300
C487        C  0.22108156  0.95895569  0.42497150     0.03690
C488        C  0.25192380  0.97488168  0.43098809    -0.04180
C489        C  0.27727222  0.96412472  0.39421093    -0.01290
C490        C  0.27519613  0.93312368  0.36913771     0.03680
C491        C  0.18510546  0.92003474  0.37247727     0.38330
C492        C  0.29333241  0.98698649  0.35725625     0.38320
C493        C  0.30449280  0.91668649  0.34892886     0.36750
C494        C  0.19323298  0.96812786  0.45877495     0.36750
N495        N  0.32786373  0.90311835  0.33393198    -0.38070
N496        N  0.16964947  0.97352210  0.48389701    -0.38070
N497        N  0.30524401  0.50351354  0.32344107    -0.37520
N498        N  0.15972788  0.90893836  0.36321297    -0.37520
C499        C  0.25650459  0.00360750  0.97150427     0.01720
C500        C  0.26185871  0.50002174  0.52870176     0.01720
C501        C  0.24046587  0.59932947  0.70432772     0.04280
C502        C  0.24273611  0.58387268  0.75679030    -0.11870
C503        C  0.24448859  0.60253354  0.80610987     0.01780
C504        C  0.24445144  0.63694366  0.80337289    -0.10390
C505        C  0.24264730  0.65307284  0.75126374     0.04270
C506        C  0.23999503  0.63410016  0.70182389    -0.09810
H507        H  0.24419312  0.55716754  0.75921987     0.09870
H508        H  0.24664660  0.65098574  0.84195677     0.07400
H509        H  0.23865687  0.64621387  0.66136174     0.07240
C510        C  0.25006712  0.90501075  0.70117554     0.04280
C511        C  0.24411758  0.92095986  0.75229126    -0.11870
C512        C  0.24118191  0.90289491  0.80203881     0.01780
C513        C  0.24253520  0.86843836  0.80048223    -0.10390
C514        C  0.24722170  0.85175792  0.74918674     0.04270
C515        C  0.25125954  0.87024925  0.69964698    -0.09810
H516        H  0.24410420  0.94773019  0.75405985     0.09830
H517        H  0.24104164  0.85483688  0.83953253     0.07400
H518        H  0.25630493  0.85774106  0.66031648     0.07240
C519        C  0.99752306  0.74701984  0.96921414     0.01720
C520        C  0.99815723  0.74717373  0.52726924     0.01720
C521        C  0.09821073  0.75144008  0.69626796     0.04280
C522        C  0.13230131  0.75262421  0.69676406    -0.11870
C523        C  0.14928901  0.75479711  0.74802564     0.01780
C524        C  0.13163014  0.75614646  0.79878152    -0.10390
C525        C  0.09746565  0.75503457  0.79826032     0.04270
C526        C  0.08109736  0.75264125  0.74696444    -0.09810
H527        H  0.14544170  0.75112792  0.65735996     0.09870
H528        H  0.14429363  0.75798951  0.83858740     0.07400
H529        H  0.05469959  0.75145283  0.74649579     0.07240
C530        C  0.39718335  0.74622783  0.69747925     0.04280
C531        C  0.41379227  0.74360074  0.74849264    -0.11870
C532        C  0.39703442  0.74260134  0.79958236     0.01780
C533        C  0.36283257  0.74429830  0.79948075    -0.10390
C534        C  0.34555989  0.74711288  0.74845578     0.04270
C535        C  0.36302898  0.74790413  0.69741989    -0.09810
H536        H  0.44023114  0.74281704  0.74842849     0.09870
H537        H  0.34982050  0.74335259  0.83901819     0.07400
H538        H  0.35026334  0.75047988  0.65783235     0.07240
O539        O  0.24571484  0.70590873  0.79452107    -0.70630
O540        O  0.24844847  0.79923980  0.79374301    -0.70840
O541        O  0.20102185  0.75425224  0.79399638    -0.70700
O542        O  0.29363166  0.75063707  0.79401919    -0.70710
O543        O  0.29366146  0.75001277  0.70295691    -0.70670
O544        O  0.20117637  0.75405091  0.70291059    -0.70690
O545        O  0.24883461  0.79916124  0.70266760    -0.70630
O546        O  0.24545512  0.70509072  0.70345887    -0.70820
V547        V  0.24729124  0.75253437  0.79224764     1.35240
V548        V  0.24735984  0.75212419  0.70472048     1.35170
C549        C  0.24462639  0.68950623  0.74941145     0.78610
C550        C  0.24845470  0.81523710  0.74829279     0.78670
C551        C  0.18529439  0.75453114  0.74838255     0.78540
C552        C  0.30948387  0.74938417  0.74848865     0.78500
C553        C  0.07934125  0.74724385  0.64355632    -0.04190
C554        C  0.07638200  0.77320881  0.60463482    -0.01300
C555        C  0.05220804  0.77205097  0.56226722     0.03690
C556        C  0.02960077  0.74549781  0.56062054    -0.04180
C557        C  0.03477362  0.71835302  0.59746319    -0.01290
C558        C  0.06019459  0.71885530  0.63703156     0.03680
C559        C  0.09666235  0.80225049  0.61080915     0.38330
C560        C  0.01416188  0.68941241  0.59583321     0.38320
C561        C  0.06620686  0.69036787  0.67271820     0.36750
C562        C  0.04919062  0.80006198  0.52490754     0.36750
N563        N  0.07123054  0.66774664  0.70111874    -0.38070
N564        N  0.54768993  0.82346873  0.49722341    -0.38070
N565        N  0.99905208  0.66537300  0.59652822    -0.37520
N566        N  0.11275419  0.82544922  0.61588496    -0.37520
C567        C  0.07760167  0.75647900  0.85052834    -0.04190
C568        C  0.07799118  0.73019443  0.88919037    -0.01300
C569        C  0.05360352  0.72801010  0.93114820     0.03690
C570        C  0.02786908  0.75179759  0.93364656    -0.04180
C571        C  0.02927603  0.77931657  0.89660572    -0.01290
C572        C  0.05444811  0.78197695  0.85675563     0.03680
C573        C  0.10229744  0.70415202  0.88341773     0.38330
C574        C  0.00516667  0.80565644  0.89849854     0.38320
C575        C  0.05615368  0.81083801  0.82063781     0.36750
C576        C  0.05417740  0.69951262  0.96771698     0.36750
N577        N  0.05758379  0.83376359  0.79183315    -0.38070
N578        N  0.05581965  0.67586137  0.99477487    -0.38070
N579        N  0.48719761  0.82782105  0.89760854    -0.37520
N580        N  0.12167274  0.68339585  0.87876230    -0.37520
C581        C  0.41696042  0.74953555  0.64539987    -0.04190
C582        C  0.43808413  0.77655166  0.64071628    -0.01300
C583        C  0.46370783  0.77604330  0.60143762     0.03690
C584        C  0.46757401  0.74912817  0.56325811    -0.04180
C585        C  0.44395035  0.72347017  0.56464710    -0.01290
C586        C  0.41896774  0.72370596  0.60583136     0.03680
C587        C  0.43381888  0.80478247  0.67798760     0.38330
C588        C  0.44637182  0.69506726  0.52782979     0.38320
C589        C  0.39633726  0.69639074  0.60951888     0.36750
C590        C  0.48575780  0.80387781  0.60180650     0.36750
N591        N  0.37824864  0.67463104  0.61231009    -0.38070
N592        N  0.00199892  0.82707157  0.60519300    -0.38070
N593        N  0.44735444  0.67145682  0.50039348    -0.37520
N594        N  0.43031995  0.82718070  0.70770963    -0.37520
C595        C  0.46648966  0.74256850  0.93536217    -0.04190
C596        C  0.44112996  0.76675548  0.93431351    -0.01300
C597        C  0.41679757  0.76574949  0.89211607     0.03690
C598        C  0.41658798  0.73993638  0.85223512    -0.04180
C599        C  0.43902138  0.71368605  0.85780376    -0.01290
C600        C  0.46431810  0.71537921  0.89760363     0.03680
C601        C  0.44110498  0.79455334  0.97267539     0.38330
C602        C  0.43659649  0.68514842  0.82087172     0.38320
C603        C  0.48787632  0.68851412  0.89863750     0.36750
C604        C  0.39340375  0.79265609  0.88725730     0.36750
N605        N  0.00541357  0.66600312  0.89727849    -0.38070
N606        N  0.37478683  0.81414794  0.88335227    -0.38070
N607        N  0.43463429  0.66250806  0.79134421    -0.37520
N608        N  0.44018711  0.81755805  0.00156684    -0.37520
C609        C  0.24257794  0.57836774  0.65265440    -0.04190
C610        C  0.22034146  0.55248684  0.64405125    -0.01300
C611        C  0.22660881  0.52775605  0.60333511     0.03690
C612        C  0.25486145  0.52894013  0.56860426    -0.04180
C613        C  0.27649453  0.55606648  0.57651612    -0.01290
C614        C  0.26994068  0.58071452  0.61733470     0.03680
C615        C  0.19101502  0.55106773  0.67816346     0.38330
C616        C  0.30803840  0.55779593  0.55003768     0.38320
C617        C  0.29304780  0.60741083  0.62597363     0.36750
C618        C  0.20439815  0.50012562  0.60039096     0.36750
N619        N  0.31141591  0.62864195  0.63270808    -0.38070
N620        N  0.18612071  0.97848129  0.60078983    -0.38070
N621        N  0.33452211  0.56220489  0.53516147    -0.37520
N622        N  0.16768093  0.55003254  0.70543044    -0.37520
C623        C  0.24869103  0.58530780  0.86030899    -0.04190
C624        C  0.22130370  0.57652494  0.89236504    -0.01300
C625        C  0.22458120  0.55321570  0.93592817     0.03690
C626        C  0.25493854  0.53731085  0.94513224    -0.04180
C627        C  0.28315033  0.55052900  0.91924615    -0.01290
C628        C  0.27990264  0.57445055  0.87672388     0.03680
C629        C  0.18959473  0.59047298  0.87879821     0.38330
C630        C  0.31525192  0.53666141  0.93047963     0.38320
C631        C  0.30843856  0.58606829  0.84678405     0.36750
C632        C  0.19691465  0.54678174  0.97177535     0.36750
N633        N  0.33113629  0.59533060  0.82277478    -0.38070
N634        N  0.17434047  0.54352456  0.00033525    -0.38070
N635        N  0.34077327  0.52482167  0.93694370    -0.37520
N636        N  0.16436099  0.60167879  0.86780132    -0.37520
C637        C  0.25793485  0.92522220  0.65072139    -0.04190
C638        C  0.28508666  0.94658307  0.65097499    -0.01300
C639        C  0.29070018  0.96779950  0.60507937     0.03690
C640        C  0.26986134  0.96723510  0.55774484    -0.04180
C641        C  0.24993136  0.93893923  0.55220450    -0.01290
C642        C  0.23991771  0.92203200  0.60074143     0.03680
C643        C  0.30755796  0.94681974  0.69788269     0.38330
C644        C  0.25719020  0.91638320  0.50695159     0.38320
C645        C  0.21305394  0.89902656  0.59691615     0.36750
C646        C  0.31940952  0.98835928  0.60541353     0.36750
N647        N  0.19159047  0.88069532  0.59374206    -0.38070
N648        N  0.34330830  0.50332671  0.60780184    -0.38070
N649        N  0.26356762  0.89620393  0.47421193    -0.37520
N650        N  0.32617095  0.94756403  0.73427704    -0.37520
C651        C  0.24425529  0.92111242  0.85546199    -0.04190
C652        C  0.21688440  0.93376371  0.88401025    -0.01300
C653        C  0.22099003  0.95900940  0.92486408     0.03690
C654        C  0.25185170  0.97488679  0.93095538    -0.04180
C655        C  0.27720950  0.96410010  0.89422403    -0.01290
C656        C  0.27511023  0.93310142  0.86914777     0.03680
C657        C  0.18499590  0.92014865  0.87227736     0.38330
C658        C  0.29329612  0.98694508  0.85727326     0.38320
C659        C  0.30439983  0.91663078  0.84898686     0.36750
C660        C  0.19313628  0.96820532  0.95863724     0.36750
N661        N  0.32776404  0.90303799  0.83402268    -0.38070
N662        N  0.16955061  0.97362036  0.98374106    -0.38070
N663        N  0.30522699  0.50346278  0.82346506    -0.37520
N664        N  0.15960934  0.90908911  0.86295729    -0.37520
C665        C  0.75656190  0.50361170  0.47152200     0.01720
C666        C  0.76178363  0.00000505  0.02868548     0.01720
C667        C  0.74041125  0.09931203  0.20433384     0.04280
C668        C  0.74268192  0.08385748  0.25679834    -0.11870
C669        C  0.74445071  0.10252073  0.30611360     0.01780
C670        C  0.74442594  0.13693038  0.30337072    -0.10390
C671        C  0.74261879  0.15305806  0.25126058     0.04270
C672        C  0.73995218  0.13408354  0.20182475    -0.09810
H673        H  0.74413289  0.05715217  0.25923154     0.09870
H674        H  0.74663542  0.15097310  0.34195143     0.07400
H675        H  0.73861466  0.14619587  0.16136138     0.07240
C676        C  0.75008073  0.40500377  0.20122428     0.04280
C677        C  0.74416987  0.42094719  0.25235651    -0.11870
C678        C  0.74125690  0.40287566  0.30210174     0.01780
C679        C  0.74259838  0.36841929  0.30053010    -0.10390
C680        C  0.74725005  0.35174423  0.24922012     0.04270
C681        C  0.75126305  0.37024164  0.19968015    -0.09810
H682        H  0.74416053  0.44771730  0.25413375     0.09830
H683        H  0.74112043  0.35481337  0.33957775     0.07400
H684        H  0.75627535  0.35773765  0.16033344     0.07240
C685        C  0.49752085  0.24698000  0.46921650     0.01720
C686        C  0.49815366  0.24721108  0.02726734     0.01720
C687        C  0.59820867  0.25145193  0.19627353     0.04280
C688        C  0.63229952  0.25263483  0.19676935    -0.11870
C689        C  0.64928799  0.25479740  0.24803207     0.01780
C690        C  0.63162957  0.25613756  0.29878921    -0.10390
C691        C  0.59746504  0.25502642  0.29826795     0.04270
C692        C  0.58109643  0.25264387  0.24697125    -0.09810
H693        H  0.64543946  0.25114495  0.15736424     0.09870
H694        H  0.64429333  0.25797224  0.33859567     0.07400
H695        H  0.55469842  0.25145599  0.24650283     0.07240
C696        C  0.89718463  0.24623479  0.19748442     0.04280
C697        C  0.91379328  0.24359726  0.24849696    -0.11870
C698        C  0.89703427  0.24257991  0.29958471     0.01780
C699        C  0.86283209  0.24426900  0.29948221    -0.10390
C700        C  0.84555965  0.24709349  0.24845882     0.04270
C701        C  0.86302962  0.24790287  0.19742482    -0.09810
H702        H  0.94023223  0.24281819  0.24843416     0.09870
H703        H  0.84981957  0.24331024  0.33901819     0.07400
H704        H  0.85026391  0.25048618  0.15783877     0.07240
O705        O  0.74570340  0.20589195  0.29451856    -0.70630
O706        O  0.74845968  0.29922113  0.29375831    -0.70840
O707        O  0.70102143  0.25424483  0.29400251    -0.70700
O708        O  0.79363109  0.25060956  0.29402355    -0.70710
O709        O  0.79366038  0.24999392  0.20296120    -0.70670
O710        O  0.70117546  0.25404705  0.20291681    -0.70690
O711        O  0.74884194  0.29915028  0.20268309    -0.70630
O712        O  0.74544491  0.20507775  0.20345646    -0.70820
V713        V  0.74729083  0.25251674  0.29225316     1.35240
V714        V  0.74735873  0.25211223  0.20472611     1.35170
C715        C  0.74461058  0.18949137  0.24940743     0.78610
C716        C  0.74846921  0.31522257  0.24831256     0.78670
C717        C  0.68529365  0.25452775  0.24838887     0.78540
C718        C  0.80948316  0.24936099  0.24849248     0.78500
C719        C  0.57933685  0.24726373  0.14356183    -0.04190
C720        C  0.57637998  0.27323250  0.10464683    -0.01300
C721        C  0.55220479  0.27208157  0.06228022     0.03690
C722        C  0.52959399  0.24553161  0.06062761    -0.04180
C723        C  0.53476190  0.21838456  0.09746756    -0.01290
C724        C  0.56018431  0.21887942  0.13703335     0.03680
C725        C  0.59666522  0.30227028  0.11082563     0.38330
C726        C  0.51414472  0.18944793  0.09583584     0.38320
C727        C  0.56619195  0.19038827  0.17271394     0.36750
C728        C  0.54919224  0.30009428  0.02492327     0.36750
N729        N  0.57121138  0.16776414  0.20110999    -0.38070
N730        N  0.04769606  0.32350139  0.99723881    -0.38070
N731        N  0.49903069  0.16541126  0.09653076    -0.37520
N732        N  0.61276122  0.32546577  0.11590508    -0.37520
C733        C  0.57760029  0.25646119  0.35053568    -0.04190
C734        C  0.57799044  0.23017062  0.38918623    -0.01300
C735        C  0.55360099  0.22797771  0.43113965     0.03690
C736        C  0.52786350  0.25176154  0.43364286    -0.04180
C737        C  0.52926701  0.27928407  0.39660941    -0.01290
C738        C  0.55444263  0.28195484  0.35676873     0.03680
C739        C  0.60229985  0.20413176  0.38340686     0.38330
C740        C  0.50515104  0.30561780  0.39850075     0.38320
C741        C  0.55614764  0.31082251  0.32066591     0.36750
C742        C  0.55417693  0.19947653  0.46770018     0.36750
N743        N  0.55757714  0.33375343  0.29187340    -0.38070
N744        N  0.55582031  0.17582319  0.49475269    -0.38070
N745        N  0.98717662  0.32777802  0.39760830    -0.37520
N746        N  0.62167768  0.18337841  0.37874627    -0.37520
C747        C  0.91696083  0.24955345  0.14540522    -0.04190
C748        C  0.93808325  0.27657155  0.14073004    -0.01300
C749        C  0.96369977  0.27607422  0.10143624     0.03690
C750        C  0.96756681  0.24916347  0.06324851    -0.04180
C751        C  0.94394461  0.22350386  0.06463161    -0.01290
C752        C  0.91896445  0.22373232  0.10582022     0.03680
C753        C  0.93382432  0.30479274  0.17802396     0.38330
C754        C  0.94636562  0.19510507  0.02780525     0.38320
C755        C  0.89633361  0.19641661  0.10949632     0.36750
C756        C  0.98574203  0.30391516  0.10179532     0.36750
N757        N  0.87824438  0.17465697  0.11227858    -0.38070
N758        N  0.50197769  0.32711315  0.10516935    -0.38070
N759        N  0.94734684  0.17149651  0.00036420    -0.37520
N760        N  0.93033099  0.32718319  0.20776478    -0.37520
C761        C  0.96648470  0.24252847  0.43537145    -0.04190
C762        C  0.94112403  0.26671469  0.43432996    -0.01300
C763        C  0.91679171  0.26571218  0.39213232     0.03690
C764        C  0.91658618  0.23990635  0.35223795    -0.04180
C765        C  0.93902046  0.21365615  0.35779731    -0.01290
C766        C  0.96431323  0.21534245  0.39760599     0.03680
C767        C  0.94109878  0.29451019  0.47269681     0.38330
C768        C  0.93660072  0.18512636  0.32084690     0.38320
C769        C  0.98786838  0.18847466  0.39864096     0.36750
C770        C  0.89339362  0.29261590  0.38728724     0.36750
N771        N  0.50540327  0.16596164  0.39728400    -0.38070
N772        N  0.87477302  0.31410523  0.38339382    -0.38070
N773        N  0.93464266  0.16249232  0.29130450    -0.37520
N774        N  0.94018042  0.31751378  0.50159083    -0.37520
C775        C  0.74252245  0.07834682  0.15266330    -0.04190
C776        C  0.72027989  0.05247190  0.14405140    -0.01300
C777        C  0.72653967  0.02774533  0.10332266     0.03690
C778        C  0.75479685  0.02892116  0.06860129    -0.04180
C779        C  0.77643780  0.05604057  0.07652702    -0.01290
C780        C  0.76988831  0.08068734  0.11735022     0.03680
C781        C  0.69095299  0.05105676  0.17816235     0.38330
C782        C  0.80797914  0.05777403  0.05004199     0.38320
C783        C  0.79300189  0.10737756  0.12599790     0.36750
C784        C  0.70430763  0.00013397  0.10033493     0.36750
N785        N  0.81137520  0.12860350  0.13273835    -0.38070
N786        N  0.68600428  0.47850605  0.10068742    -0.38070
N787        N  0.83445990  0.06219516  0.03516095    -0.37520
N788        N  0.66761856  0.05002465  0.20542884    -0.37520
C789        C  0.74867183  0.08529840  0.36031159    -0.04190
C790        C  0.72129491  0.07648777  0.39237068    -0.01300
C791        C  0.72459786  0.05318405  0.43593684     0.03690
C792        C  0.75497158  0.03731134  0.44514056    -0.04180
C793        C  0.78316874  0.05055664  0.41924731    -0.01290
C794        C  0.77989494  0.07447441  0.37672426     0.03680
C795        C  0.68957207  0.09040424  0.37880743     0.38330
C796        C  0.81528311  0.03671458  0.43046071     0.38320
C797        C  0.80841746  0.08611936  0.34677730     0.36750
C798        C  0.69693903  0.04672218  0.47178663     0.36750
N799        N  0.83110446  0.09540322  0.32276240    -0.38070
N800        N  0.67436898  0.04344290  0.50034840    -0.38070
N801        N  0.84081489  0.02489331  0.43689938    -0.37520
N802        N  0.66432730  0.10158525  0.36781349    -0.37520
C803        C  0.75790057  0.42522001  0.15075299    -0.04190
C804        C  0.78506324  0.44656647  0.15091816    -0.01300
C805        C  0.79065080  0.46776485  0.10498810     0.03690
C806        C  0.76976522  0.46721169  0.05771527    -0.04180
C807        C  0.74978725  0.43894302  0.05226250    -0.01290
C808        C  0.73982269  0.42204254  0.10083761     0.03680
C809        C  0.80756859  0.44681346  0.19777713     0.38330
C810        C  0.75691608  0.41638692  0.00695184     0.38320
C811        C  0.71293617  0.39905723  0.09711619     0.36750
C812        C  0.81938477  0.48828989  0.10521131     0.36750
N813        N  0.69145531  0.38074202  0.09402528    -0.38070
N814        N  0.84331561  0.00322281  0.10749821    -0.38070
N815        N  0.76318861  0.39619631  0.97417367    -0.37520
N816        N  0.82620583  0.44757055  0.23413393    -0.37520
C817        C  0.74434579  0.42108684  0.35552799    -0.04190
C818        C  0.71697932  0.43369583  0.38413986    -0.01300
C819        C  0.72107744  0.45895480  0.42497178     0.03690
C820        C  0.75191939  0.47488139  0.43098791    -0.04180
C821        C  0.77726764  0.46412529  0.39420980    -0.01290
C822        C  0.77519238  0.43312384  0.36913795     0.03680
C823        C  0.68510196  0.42003311  0.37247785     0.38330
C824        C  0.79332436  0.48698755  0.35725141     0.38320
C825        C  0.80448944  0.41668742  0.34892916     0.36750
C826        C  0.69322882  0.46812664  0.45877539     0.36750
N827        N  0.82786070  0.40311984  0.33393233    -0.38070
N828        N  0.66964536  0.47352071  0.48389770    -0.38070
N829        N  0.80525487  0.00351185  0.32344795    -0.37520
N830        N  0.65972456  0.40893625  0.36321373    -0.37520
C831        C  0.75650001  0.50360735  0.97150381     0.01720
C832        C  0.76186306  0.00002155  0.52870222     0.01720
C833        C  0.74046885  0.09932902  0.70432831     0.04280
C834        C  0.74273944  0.08387236  0.75679092    -0.11870
C835        C  0.74449160  0.10253334  0.80611038     0.01780
C836        C  0.74445370  0.13694345  0.80337325    -0.10390
C837        C  0.74264918  0.15307252  0.75126403     0.04270
C838        C  0.73999735  0.13409970  0.70182427    -0.09810
H839        H  0.74419696  0.05716724  0.75922061     0.09870
H840        H  0.74664858  0.15098564  0.84195707     0.07400
H841        H  0.73865900  0.14621330  0.66136204     0.07240
C842        C  0.75006379  0.40501067  0.70117560     0.04280
C843        C  0.74411393  0.42095956  0.75229145    -0.11870
C844        C  0.74117876  0.40289445  0.80203894     0.01780
C845        C  0.74253291  0.36843795  0.80048218    -0.10390
C846        C  0.74721977  0.35175770  0.74918662     0.04270
C847        C  0.75125705  0.37024919  0.69964690    -0.09810
H848        H  0.74409995  0.44772990  0.75406017     0.09830
H849        H  0.74103974  0.35483638  0.83953245     0.07400
H850        H  0.75630270  0.35774118  0.66031633     0.07240
C851        C  0.49752304  0.24701966  0.96921412     0.01720
C852        C  0.49815725  0.24717341  0.52726939     0.01720
C853        C  0.59821078  0.25143895  0.69626799     0.04280
C854        C  0.63230136  0.25262296  0.69676410    -0.11870
C855        C  0.64928904  0.25479586  0.74802567     0.01780
C856        C  0.63163018  0.25614529  0.79878154    -0.10390
C857        C  0.59746569  0.25503351  0.79826033     0.04270
C858        C  0.58109740  0.25264020  0.74696445    -0.09810
H859        H  0.64544174  0.25112666  0.65736000     0.09870
H860        H  0.64429367  0.25798837  0.83858742     0.07400
H861        H  0.55469962  0.25145190  0.74649579     0.07240
C862        C  0.89718343  0.24622872  0.69747932     0.04280
C863        C  0.91379233  0.24360157  0.74849272    -0.11870
C864        C  0.89703446  0.24260214  0.79958240     0.01780
C865        C  0.86283262  0.24429915  0.79948077    -0.10390
C866        C  0.84555995  0.24711377  0.74845580     0.04270
C867        C  0.86302906  0.24790506  0.69741993    -0.09810
H868        H  0.94023120  0.24281778  0.74842860     0.09870
H869        H  0.84982054  0.24335336  0.83901820     0.07400
H870        H  0.85026343  0.25048079  0.65783239     0.07240
O871        O  0.74571558  0.20590852  0.79452118    -0.70630
O872        O  0.74844781  0.29923962  0.79374287    -0.70840
O873        O  0.70102188  0.25425139  0.79399638    -0.70700
O874        O  0.79363171  0.25063755  0.79401917    -0.70710
O875        O  0.79366152  0.25001327  0.70295689    -0.70670
O876        O  0.70117639  0.25404991  0.70291059    -0.70690
O877        O  0.74883384  0.29916103  0.70266746    -0.70630
O878        O  0.74545595  0.20509041  0.70345898    -0.70820
V879        V  0.74729129  0.25253419  0.79224763     1.35240
V880        V  0.74735989  0.25212394  0.70472046     1.35170
C881        C  0.74462750  0.18950596  0.74941160     0.78610
C882        C  0.74845365  0.31523690  0.74829264     0.78670
C883        C  0.68529442  0.25453007  0.74838255     0.78540
C884        C  0.80948394  0.24938482  0.74848864     0.78500
C885        C  0.57934129  0.24724287  0.64355633    -0.04190
C886        C  0.57638220  0.27320789  0.60463491    -0.01300
C887        C  0.55220824  0.27205023  0.56226730     0.03690
C888        C  0.52960078  0.24549723  0.56062062    -0.04180
C889        C  0.53477347  0.21835238  0.59746319    -0.01290
C890        C  0.56019446  0.21885444  0.63703151     0.03680
C891        C  0.59666270  0.30224945  0.61080933     0.38330
C892        C  0.51416150  0.18941193  0.59583322     0.38320
C893        C  0.56620659  0.19036694  0.67271804     0.36750
C894        C  0.54919098  0.30006128  0.52490768     0.36750
N895        N  0.57123015  0.16774564  0.70111850    -0.38070
N896        N  0.04769073  0.32346818  0.49722326    -0.38070
N897        N  0.49905153  0.16537264  0.59652822    -0.37520
N898        N  0.61275465  0.32544810  0.61588523    -0.37520
C899        C  0.57760172  0.25647813  0.85052832    -0.04190
C900        C  0.57799104  0.23019360  0.88919041    -0.01300
C901        C  0.55360336  0.22800947  0.93114823     0.03690
C902        C  0.52786910  0.25179715  0.93364655    -0.04180
C903        C  0.52927625  0.27931611  0.89660567    -0.01290
C904        C  0.55444834  0.28197626  0.85675555     0.03680
C905        C  0.60229714  0.20415102  0.88341786     0.38330
C906        C  0.50516711  0.30565618  0.89849849     0.38320
C907        C  0.55615410  0.31083726  0.82063763     0.36750
C908        C  0.55417702  0.19951200  0.96771702     0.36750
N909        N  0.55758437  0.33376280  0.79183290    -0.38070
N910        N  0.55581910  0.17586073  0.99477492    -0.38070
N911        N  0.98719823  0.32782102  0.89760875    -0.37520
N912        N  0.62167231  0.18339473  0.87876249    -0.37520
C913        C  0.91696049  0.24953626  0.64539992    -0.04190
C914        C  0.93808437  0.27655223  0.64071619    -0.01300
C915        C  0.96370799  0.27604369  0.60143738     0.03690
C916        C  0.96757395  0.24912849  0.56325795    -0.04180
C917        C  0.94395012  0.22347066  0.56464705    -0.01290
C918        C  0.91896758  0.22370664  0.60583143     0.03680
C919        C  0.93381939  0.30478308  0.67798751     0.38330
C920        C  0.94637131  0.19506775  0.52782970     0.38320
C921        C  0.89633698  0.19639154  0.60951916     0.36750
C922        C  0.98575808  0.30387809  0.60180592     0.36750
N923        N  0.87824828  0.17463192  0.61231053    -0.38070
N924        N  0.50199973  0.32707109  0.60519362    -0.38070
N925        N  0.94735369  0.17145732  0.50039334    -0.37520
N926        N  0.93032068  0.32718133  0.70770956    -0.37520
C927        C  0.96648962  0.24256863  0.93536228    -0.04190
C928        C  0.94113010  0.26675580  0.93431364    -0.01300
C929        C  0.91679771  0.26575002  0.89211620     0.03690
C930        C  0.91658796  0.23993697  0.85223516    -0.04180
C931        C  0.93902116  0.21368646  0.85780376    -0.01290
C932        C  0.96431786  0.21537937  0.89760369     0.03680
C933        C  0.94110532  0.29455366  0.97267554     0.38330
C934        C  0.93659608  0.18514890  0.82087160     0.38320
C935        C  0.98787585  0.18851408  0.89863758     0.36750
C936        C  0.89340405  0.29265677  0.88725752     0.36750
N937        N  0.50541295  0.16600287  0.89727850    -0.38070
N938        N  0.87478725  0.31414873  0.88335255    -0.38070
N939        N  0.93463372  0.16250859  0.79134402    -0.37520
N940        N  0.94018761  0.31755837  0.00156700    -0.37520
C941        C  0.74258134  0.07836723  0.65265516    -0.04190
C942        C  0.72034514  0.05248613  0.64405182    -0.01300
C943        C  0.72661282  0.02775541  0.60333570     0.03690
C944        C  0.75486564  0.02893966  0.56860527    -0.04180
C945        C  0.77649864  0.05606601  0.57651782    -0.01290
C946        C  0.76994430  0.08071412  0.61733604     0.03680
C947        C  0.69101862  0.05106675  0.67816381     0.38330
C948        C  0.80804288  0.05779537  0.55004077     0.38320
C949        C  0.79305115  0.10741064  0.62597531     0.36750
C950        C  0.70440218  0.00012498  0.60039100     0.36750
N951        N  0.81141903  0.12864193  0.63271009    -0.38070
N952        N  0.68611677  0.47848189  0.60079020    -0.38070
N953        N  0.83452684  0.06220433  0.53516592    -0.37520
N954        N  0.66768449  0.05003135  0.70543065    -0.37520
C955        C  0.74869442  0.08530775  0.86030954    -0.04190
C956        C  0.72130733  0.07652484  0.89236613    -0.01300
C957        C  0.72458523  0.05321581  0.93592948     0.03690
C958        C  0.75494274  0.03731119  0.94513324    -0.04180
C959        C  0.78315429  0.05052974  0.91924702    -0.01290
C960        C  0.77990620  0.07445091  0.87672424     0.03680
C961        C  0.68959820  0.09047267  0.87879971     0.38330
C962        C  0.81525622  0.03666339  0.93048166     0.38320
C963        C  0.80844189  0.08606888  0.84678403     0.36750
C964        C  0.69691903  0.04678219  0.97177760     0.36750
N965        N  0.83113945  0.09533137  0.82277450    -0.38070
N966        N  0.67434508  0.04352540  0.00033821    -0.38070
N967        N  0.84077795  0.02482459  0.93694621    -0.37520
N968        N  0.66436434  0.10167831  0.86780314    -0.37520
C969        C  0.75793116  0.42522240  0.65072157    -0.04190
C970        C  0.78508260  0.44658376  0.65097538    -0.01300
C971        C  0.79069583  0.46780038  0.60507990     0.03690
C972        C  0.76985718  0.46723556  0.55774510    -0.04180
C973        C  0.74992772  0.43893933  0.55220460    -0.01290
C974        C  0.73991417  0.42203196  0.60074148     0.03680
C975        C  0.80755385  0.44682071  0.69788313     0.38330
C976        C  0.75718727  0.41638336  0.50695193     0.38320
C977        C  0.71305083  0.39902604  0.59691595     0.36750
C978        C  0.81940468  0.48836087  0.60541464     0.36750
N979        N  0.69158771  0.38069439  0.59374164    -0.38070
N980        N  0.84331357  0.00332450  0.60780012    -0.38070
N981        N  0.76356530  0.39620418  0.47421244    -0.37520
N982        N  0.82616685  0.44756522  0.73427746    -0.37520
C983        C  0.74425180  0.42111191  0.85546225    -0.04190
C984        C  0.71688068  0.43376268  0.88401062    -0.01300
C985        C  0.72098593  0.45900850  0.92486436     0.03690
C986        C  0.75184731  0.47488650  0.93095519    -0.04180
C987        C  0.77720494  0.46410067  0.89422290    -0.01290
C988        C  0.77510650  0.43310159  0.86914801     0.03680
C989        C  0.68499242  0.42014701  0.87227794     0.38330
C990        C  0.79328809  0.48694616  0.85726843     0.38320
C991        C  0.80439650  0.41663172  0.84898716     0.36750
C992        C  0.69313213  0.46820408  0.95863768     0.36750
N993        N  0.82776104  0.40303949  0.83402304    -0.38070
N994        N  0.66954651  0.47361897  0.98374172    -0.38070
N995        N  0.80523757  0.00346114  0.82347172    -0.37520
N996        N  0.65960605  0.40908699  0.86295804    -0.37520
C997        C  0.75656651  0.00361186  0.47152246     0.01720
C998        C  0.76177932  0.50000525  0.02868503     0.01720
C999        C  0.74040824  0.59931249  0.20433326     0.04280
C1000       C  0.74267855  0.58385781  0.25679772    -0.11870
C1001       C  0.74444765  0.60252095  0.30611309     0.01780
C1002       C  0.74442364  0.63693060  0.30337036    -0.10390
C1003       C  0.74261688  0.65305839  0.25126029     0.04270
C1004       C  0.73994983  0.63408402  0.20182438    -0.09810
H1005       H  0.74412900  0.55715248  0.25923082     0.09870
H1006       H  0.74663341  0.65097322  0.34195113     0.07400
H1007       H  0.73861251  0.64619645  0.16136108     0.07240
C1008       C  0.75008407  0.90500385  0.20122422     0.04280
C1009       C  0.74417353  0.92094749  0.25235632    -0.11870
C1010       C  0.74126007  0.90287612  0.30210160     0.01780
C1011       C  0.74260069  0.86841971  0.30053014    -0.10390
C1012       C  0.74725200  0.85174446  0.24922024     0.04270
C1013       C  0.75126555  0.87024171  0.19968023    -0.09810
H1014       H  0.74416480  0.94771760  0.25413342     0.09830
H1015       H  0.74112236  0.85481388  0.33957784     0.07400
H1016       H  0.75627759  0.85773754  0.16033358     0.07240
C1017       C  0.49752088  0.74698018  0.46921652     0.01720
C1018       C  0.49815364  0.74721141  0.02726719     0.01720
C1019       C  0.59820863  0.75145309  0.19627351     0.04280
C1020       C  0.63229948  0.75263610  0.19676932    -0.11870
C1021       C  0.64928796  0.75479867  0.24803204     0.01780
C1022       C  0.63162953  0.75613875  0.29878919    -0.10390
C1023       C  0.59746501  0.75502750  0.29826795     0.04270
C1024       C  0.58109639  0.75264495  0.24697124    -0.09810
H1025       H  0.64543942  0.75114623  0.15736421     0.09870
H1026       H  0.64429330  0.75797340  0.33859564     0.07400
H1027       H  0.55469839  0.75145695  0.24650283     0.07240
C1028       C  0.89718456  0.74623391  0.19748436     0.04280
C1029       C  0.91379323  0.74359644  0.24849690    -0.11870
C1030       C  0.89703423  0.74257912  0.29958468     0.01780
C1031       C  0.86283205  0.74426816  0.29948219    -0.10390
C1032       C  0.84555959  0.74709260  0.24845880     0.04270
C1033       C  0.86302955  0.74790195  0.19742479    -0.09810
H1034       H  0.94023218  0.74281746  0.24843408     0.09870
H1035       H  0.84981954  0.74330947  0.33901819     0.07400
H1036       H  0.85026384  0.75048527  0.15783875     0.07240
O1037       O  0.74570264  0.70589217  0.29451845    -0.70630
O1038       O  0.74846035  0.79922133  0.29375844    -0.70840
O1039       O  0.70102140  0.75424570  0.29400251    -0.70700
O1040       O  0.79363105  0.75060908  0.29402357    -0.70710
O1041       O  0.79366032  0.74999343  0.20296122    -0.70670
O1042       O  0.70117544  0.75404807  0.20291681    -0.70690
O1043       O  0.74884272  0.79915050  0.20268322    -0.70630
O1044       O  0.74544408  0.70507807  0.20345635    -0.70820
V1045       V  0.74729079  0.75251694  0.29225318     1.35240
V1046       V  0.74735869  0.75211250  0.20472612     1.35170
C1047       C  0.74460946  0.68949166  0.24940728     0.78610
C1048       C  0.74847028  0.81522277  0.24831271     0.78670
C1049       C  0.68529362  0.75452884  0.24838886     0.78540
C1050       C  0.80948310  0.74936034  0.24849250     0.78500
C1051       C  0.57933681  0.74726474  0.14356182    -0.04190
C1052       C  0.57637978  0.77323345  0.10464675    -0.01300
C1053       C  0.55220459  0.77208233  0.06228014     0.03690
C1054       C  0.52959397  0.74553221  0.06062754    -0.04180
C1055       C  0.53476205  0.71838522  0.09746757    -0.01290
C1056       C  0.56018443  0.71888029  0.13703342     0.03680
C1057       C  0.59666488  0.80227134  0.11082543     0.38330
C1058       C  0.51414509  0.68944844  0.09583586     0.38320
C1059       C  0.56619222  0.69038923  0.17271412     0.36750
C1060       C  0.54919187  0.80009499  0.02492312     0.36750
N1061       N  0.57121176  0.66776516  0.20111027    -0.38070
N1062       N  0.04769527  0.82350193  0.99723893    -0.38070
N1063       N  0.49903124  0.66541165  0.09653079    -0.37520
N1064       N  0.61276077  0.82546692  0.11590478    -0.37520
C1065       C  0.57760025  0.75646208  0.35053570    -0.04190
C1066       C  0.57799058  0.73017147  0.38918618    -0.01300
C1067       C  0.55360115  0.72797835  0.43113961     0.03690
C1068       C  0.52786349  0.75176198  0.43364287    -0.04180
C1069       C  0.52926679  0.77928455  0.39660946    -0.01290
C1070       C  0.55444240  0.78195556  0.35676882     0.03680
C1071       C  0.60230015  0.70413278  0.38340673     0.38330
C1072       C  0.50515060  0.80561808  0.39850081     0.38320
C1073       C  0.55614722  0.81082328  0.32066610     0.36750
C1074       C  0.55417732  0.69947717  0.46770012     0.36750
N1075       N  0.55757656  0.83375424  0.29187368    -0.38070
N1076       N  0.55582087  0.67582384  0.49475263    -0.38070
N1077       N  0.98717600  0.82777803  0.39760813    -0.37520
N1078       N  0.62167811  0.68337955  0.37874607    -0.37520
C1079       C  0.91696077  0.74955274  0.14540519    -0.04190
C1080       C  0.93808301  0.77657099  0.14073014    -0.01300
C1081       C  0.96369959  0.77607385  0.10143646     0.03690
C1082       C  0.96756686  0.74916316  0.06324865    -0.04180
C1083       C  0.94394484  0.72350337  0.06463166    -0.01290
C1084       C  0.91896461  0.72373164  0.10582016     0.03680
C1085       C  0.93382382  0.80479214  0.17802406     0.38330
C1086       C  0.94636612  0.69510459  0.02780534     0.38320
C1087       C  0.89633390  0.69641581  0.10949608     0.36750
C1088       C  0.98574172  0.80391490  0.10179584     0.36750
N1089       N  0.87824477  0.67465608  0.11227820    -0.38070
N1090       N  0.50197686  0.82711366  0.10516868    -0.38070
N1091       N  0.94734758  0.67149602  0.00036433    -0.37520
N1092       N  0.93033028  0.82718256  0.20776487    -0.37520
C1093       C  0.96648475  0.74252832  0.43537136    -0.04190
C1094       C  0.94112389  0.76671434  0.43432986    -0.01300
C1095       C  0.91679158  0.76571164  0.39213223     0.03690
C1096       C  0.91658619  0.73990575  0.35223793    -0.04180
C1097       C  0.93902068  0.71365573  0.35779733    -0.01290
C1098       C  0.96431347  0.71534227  0.39760595     0.03680
C1099       C  0.94109844  0.79450985  0.47269670     0.38330
C1100       C  0.93660113  0.68512588  0.32084701     0.38320
C1101       C  0.98786884  0.68847468  0.39864089     0.36750
C1102       C  0.89339333  0.79261521  0.38728707     0.36750
N1103       N  0.50540389  0.66596189  0.39728398    -0.38070
N1104       N  0.87477261  0.81410443  0.38339359    -0.38070
N1105       N  0.93464322  0.66249179  0.29130468    -0.37520
N1106       N  0.94017992  0.81751342  0.50159073    -0.37520
C1107       C  0.74251903  0.57834734  0.15266255    -0.04190
C1108       C  0.72027620  0.55247263  0.14405081    -0.01300
C1109       C  0.72653567  0.52774598  0.10332206     0.03690
C1110       C  0.75479268  0.52892165  0.06860030    -0.04180
C1111       C  0.77643371  0.55604105  0.07652537    -0.01290
C1112       C  0.76988468  0.58068775  0.11734892     0.03680
C1113       C  0.69094936  0.55105775  0.17816194     0.38330
C1114       C  0.80797469  0.55777460  0.05003901     0.38320
C1115       C  0.79299853  0.60737776  0.12599628     0.36750
C1116       C  0.70430361  0.50013462  0.10033487     0.36750
N1117       N  0.81137207  0.62860353  0.13273644    -0.38070
N1118       N  0.68600821  0.97850549  0.10068708    -0.38070
N1119       N  0.83445521  0.56219573  0.03515668    -0.37520
N1120       N  0.66761496  0.55002584  0.20542855    -0.37520
C1121       C  0.74866840  0.58529846  0.36031104    -0.04190
C1122       C  0.72129124  0.57648788  0.39236962    -0.01300
C1123       C  0.72459380  0.55318396  0.43593554     0.03690
C1124       C  0.75496735  0.53731101  0.44513955    -0.04180
C1125       C  0.78316474  0.55055589  0.41924641    -0.01290
C1126       C  0.77989135  0.57447405  0.37672389     0.03680
C1127       C  0.68956856  0.59040459  0.37880597     0.38330
C1128       C  0.81527877  0.53671258  0.43045861     0.38320
C1129       C  0.80841409  0.58611877  0.34677727     0.36750
C1130       C  0.69693462  0.54672174  0.47178439     0.36750
N1131       N  0.83110124  0.59540244  0.32276262    -0.38070
N1132       N  0.67436433  0.54344207  0.50034547    -0.38070
N1133       N  0.84081016  0.52489034  0.43689677    -0.37520
N1134       N  0.66432390  0.60158577  0.36781172    -0.37520
C1135       C  0.75790425  0.92521982  0.15075280    -0.04190
C1136       C  0.78506730  0.94656579  0.15091774    -0.01300
C1137       C  0.79065513  0.96776400  0.10498755     0.03690
C1138       C  0.76976936  0.96721124  0.05771500    -0.04180
C1139       C  0.74979087  0.93894293  0.05226240    -0.01290
C1140       C  0.73982622  0.92204259  0.10083756     0.03680
C1141       C  0.80757269  0.94681251  0.19777665     0.38330
C1142       C  0.75691900  0.91638677  0.00695150     0.38320
C1143       C  0.71293927  0.89905776  0.09711639     0.36750
C1144       C  0.81938959  0.98828833  0.10521019     0.36750
N1145       N  0.69145808  0.88074295  0.09402571    -0.38070
N1146       N  0.84331040  0.50322499  0.10749994    -0.38070
N1147       N  0.76319092  0.89619607  0.97417315    -0.37520
N1148       N  0.82620993  0.94756937  0.23413347    -0.37520
C1149       C  0.74434930  0.92108737  0.35552773    -0.04190
C1150       C  0.71698305  0.93369688  0.38413949    -0.01300
C1151       C  0.72108157  0.95895570  0.42497150     0.03690
C1152       C  0.75192381  0.97488169  0.43098809    -0.04180
C1153       C  0.77727223  0.96412472  0.39421093    -0.01290
C1154       C  0.77519613  0.93312369  0.36913769     0.03680
C1155       C  0.68510546  0.92003476  0.37247728     0.38330
C1156       C  0.79333245  0.98698649  0.35725629     0.38320
C1157       C  0.80449279  0.91668650  0.34892884     0.36750
C1158       C  0.69323299  0.96812788  0.45877495     0.36750
N1159       N  0.82786372  0.90311835  0.33393195    -0.38070
N1160       N  0.66964948  0.97352212  0.48389702    -0.38070
N1161       N  0.80524409  0.50351353  0.32344114    -0.37520
N1162       N  0.65972787  0.90893837  0.36321299    -0.37520
C1163       C  0.75650456  0.00360751  0.97150426     0.01720
C1164       C  0.76185872  0.50002175  0.52870176     0.01720
C1165       C  0.74046589  0.59932948  0.70432772     0.04280
C1166       C  0.74273611  0.58387270  0.75679030    -0.11870
C1167       C  0.74448860  0.60253356  0.80610987     0.01780
C1168       C  0.74445149  0.63694367  0.80337289    -0.10390
C1169       C  0.74264736  0.65307285  0.75126375     0.04270
C1170       C  0.73999508  0.63410018  0.70182390    -0.09810
H1171       H  0.74419310  0.55716755  0.75921987     0.09870
H1172       H  0.74664667  0.65098575  0.84195677     0.07400
H1173       H  0.73865693  0.64621389  0.66136175     0.07240
C1174       C  0.75006714  0.90501076  0.70117555     0.04280
C1175       C  0.74411758  0.92095987  0.75229127    -0.11870
C1176       C  0.74118192  0.90289491  0.80203882     0.01780
C1177       C  0.74253523  0.86843836  0.80048224    -0.10390
C1178       C  0.74722175  0.85175793  0.74918676     0.04270
C1179       C  0.75125958  0.87024926  0.69964699    -0.09810
H1180       H  0.74410418  0.94773020  0.75405986     0.09830
H1181       H  0.74104169  0.85483688  0.83953254     0.07400
H1182       H  0.75630498  0.85774107  0.66031649     0.07240
C1183       C  0.49752305  0.74701999  0.96921397     0.01720
C1184       C  0.49815727  0.74717359  0.52726941     0.01720
C1185       C  0.59821085  0.75143999  0.69626791     0.04280
C1186       C  0.63230142  0.75262415  0.69676404    -0.11870
C1187       C  0.64928910  0.75479709  0.74802563     0.01780
C1188       C  0.63163022  0.75614646  0.79878149    -0.10390
C1189       C  0.59746573  0.75503455  0.79826026     0.04270
C1190       C  0.58109746  0.75264117  0.74696437    -0.09810
H1191       H  0.64544182  0.75112785  0.65735995     0.09870
H1192       H  0.64429369  0.75798955  0.83858737     0.07400
H1193       H  0.55469969  0.75145274  0.74649569     0.07240
C1194       C  0.89718346  0.74622796  0.69747933     0.04280
C1195       C  0.91379237  0.74360087  0.74849273    -0.11870
C1196       C  0.89703451  0.74260142  0.79958243     0.01780
C1197       C  0.86283266  0.74429835  0.79948080    -0.10390
C1198       C  0.84555998  0.74711294  0.74845583     0.04270
C1199       C  0.86302909  0.74790423  0.69741995    -0.09810
H1200       H  0.94023125  0.74281718  0.74842859     0.09870
H1201       H  0.84982058  0.74335259  0.83901823     0.07400
H1202       H  0.85026345  0.75047998  0.65783242     0.07240
O1203       O  0.74571494  0.70590874  0.79452108    -0.70630
O1204       O  0.74844855  0.79923981  0.79374302    -0.70840
O1205       O  0.70102194  0.75425224  0.79399638    -0.70700
O1206       O  0.79363175  0.75063710  0.79401922    -0.70710
O1207       O  0.79366156  0.75001280  0.70295694    -0.70670
O1208       O  0.70117647  0.75405091  0.70291060    -0.70690
O1209       O  0.74883469  0.79916126  0.70266761    -0.70630
O1210       O  0.74545523  0.70509073  0.70345888    -0.70820
V1211       V  0.74729133  0.75253439  0.79224766     1.35240
V1212       V  0.74735994  0.75212421  0.70472049     1.35170
C1213       C  0.74462649  0.68950624  0.74941146     0.78610
C1214       C  0.74845478  0.81523711  0.74829281     0.78670
C1215       C  0.68529449  0.75453114  0.74838255     0.78540
C1216       C  0.80948397  0.74938420  0.74848869     0.78500
C1217       C  0.57934138  0.74724374  0.64355626    -0.04190
C1218       C  0.57638206  0.77320873  0.60463484    -0.01300
C1219       C  0.55220807  0.77205088  0.56226728     0.03690
C1220       C  0.52960083  0.74549768  0.56062063    -0.04180
C1221       C  0.53477376  0.71835288  0.59746320    -0.01290
C1222       C  0.56019478  0.71885515  0.63703148     0.03680
C1223       C  0.59666234  0.80225045  0.61080921     0.38330
C1224       C  0.51416202  0.68941226  0.59583328     0.38320
C1225       C  0.56620715  0.69036771  0.67271801     0.36750
C1226       C  0.54919055  0.80006192  0.52490771     0.36750
N1227       N  0.57123091  0.66774645  0.70111847    -0.38070
N1228       N  0.04769009  0.82346875  0.49722314    -0.38070
N1229       N  0.49905223  0.66537285  0.59652831    -0.37520
N1230       N  0.61275412  0.82544922  0.61588507    -0.37520
C1231       C  0.57760172  0.75647904  0.85052824    -0.04190
C1232       C  0.57799121  0.73019451  0.88919035    -0.01300
C1233       C  0.55360353  0.72801021  0.93114815     0.03690
C1234       C  0.52786909  0.75179770  0.93364642    -0.04180
C1235       C  0.52927606  0.77931665  0.89660551    -0.01290
C1236       C  0.55444815  0.78197699  0.85675543     0.03680
C1237       C  0.60229748  0.70415209  0.88341783     0.38330
C1238       C  0.50516672  0.80565654  0.89849826     0.38320
C1239       C  0.55615372  0.81083800  0.82063751     0.36750
C1240       C  0.55417739  0.69951277  0.96771701     0.36750
N1241       N  0.55758384  0.83376354  0.79183276    -0.38070
N1242       N  0.55581963  0.67586153  0.99477496    -0.38070
N1243       N  0.98719756  0.82782095  0.89760887    -0.37520
N1244       N  0.62167278  0.68339593  0.87876248    -0.37520
C1245       C  0.91696052  0.74953567  0.64539993    -0.04190
C1246       C  0.93808419  0.77655181  0.64071622    -0.01300
C1247       C  0.96370779  0.77604350  0.60143737     0.03690
C1248       C  0.96757396  0.74912835  0.56325790    -0.04180
C1249       C  0.94395033  0.72347032  0.56464701    -0.01290
C1250       C  0.91896779  0.72370609  0.60583140     0.03680
C1251       C  0.93381901  0.80478260  0.67798761     0.38330
C1252       C  0.94637175  0.69506743  0.52782965     0.38320
C1253       C  0.89633736  0.69639083  0.60951906     0.36750
C1254       C  0.98575766  0.80387809  0.60180594     0.36750
N1255       N  0.87824879  0.67463110  0.61231039    -0.38070
N1256       N  0.50199914  0.82707122  0.60519389    -0.38070
N1257       N  0.94735432  0.67145701  0.50039330    -0.37520
N1258       N  0.93032014  0.82718081  0.70770970    -0.37520
C1259       C  0.96648966  0.74256838  0.93536237    -0.04190
C1260       C  0.94112997  0.76675537  0.93431376    -0.01300
C1261       C  0.91679761  0.76574945  0.89211627     0.03690
C1262       C  0.91658804  0.73993639  0.85223521    -0.04180
C1263       C  0.93902141  0.71368604  0.85780382    -0.01290
C1264       C  0.96431810  0.71537912  0.89760376     0.03680
C1265       C  0.94110499  0.79455318  0.97267574     0.38330
C1266       C  0.93659652  0.68514845  0.82087168     0.38320
C1267       C  0.98787629  0.68851401  0.89863761     0.36750
C1268       C  0.89340381  0.79265606  0.88725756     0.36750
N1269       N  0.50541362  0.66600325  0.89727839    -0.38070
N1270       N  0.87478690  0.81414792  0.88335258    -0.38070
N1271       N  0.93463432  0.66250812  0.79134410    -0.37520
N1272       N  0.94018713  0.81755784  0.00156730    -0.37520
C1273       C  0.74257795  0.57836776  0.65265440    -0.04190
C1274       C  0.72034147  0.55248686  0.64405124    -0.01300
C1275       C  0.72660882  0.52775607  0.60333511     0.03690
C1276       C  0.75486146  0.52894014  0.56860426    -0.04180
C1277       C  0.77649455  0.55606649  0.57651613    -0.01290
C1278       C  0.76994070  0.58071453  0.61733470     0.03680
C1279       C  0.69101502  0.55106775  0.67816344     0.38330
C1280       C  0.80803842  0.55779593  0.55003769     0.38320
C1281       C  0.79304783  0.60741083  0.62597363     0.36750
C1282       C  0.70439815  0.50012564  0.60039096     0.36750
N1283       N  0.81141594  0.62864195  0.63270809    -0.38070
N1284       N  0.68612071  0.97848130  0.60078983    -0.38070
N1285       N  0.83452213  0.56220488  0.53516151    -0.37520
N1286       N  0.66768093  0.55003257  0.70543041    -0.37520
C1287       C  0.74869103  0.58530780  0.86030899    -0.04190
C1288       C  0.72130370  0.57652494  0.89236503    -0.01300
C1289       C  0.72458120  0.55321571  0.93592817     0.03690
C1290       C  0.75493855  0.53731086  0.94513225    -0.04180
C1291       C  0.78315034  0.55052902  0.91924616    -0.01290
C1292       C  0.77990265  0.57445056  0.87672389     0.03680
C1293       C  0.68959473  0.59047298  0.87879819     0.38330
C1294       C  0.81525193  0.53666144  0.93047967     0.38320
C1295       C  0.80843856  0.58606831  0.84678406     0.36750
C1296       C  0.69691466  0.54678176  0.97177535     0.36750
N1297       N  0.83113629  0.59533062  0.82277479    -0.38070
N1298       N  0.67434047  0.54352458  0.00033525    -0.38070
N1299       N  0.84077328  0.52482171  0.93694375    -0.37520
N1300       N  0.66436099  0.60167878  0.86780129    -0.37520
C1301       C  0.75793485  0.92522222  0.65072141    -0.04190
C1302       C  0.78508666  0.94658309  0.65097501    -0.01300
C1303       C  0.79070018  0.96779953  0.60507939     0.03690
C1304       C  0.76986135  0.96723512  0.55774485    -0.04180
C1305       C  0.74993136  0.93893925  0.55220451    -0.01290
C1306       C  0.73991772  0.92203201  0.60074145     0.03680
C1307       C  0.80755795  0.94681977  0.69788271     0.38330
C1308       C  0.75719021  0.91638322  0.50695160     0.38320
C1309       C  0.71305396  0.89902657  0.59691616     0.36750
C1310       C  0.81940951  0.98835931  0.60541355     0.36750
N1311       N  0.69159050  0.88069532  0.59374207    -0.38070
N1312       N  0.84330832  0.50332669  0.60780180    -0.38070
N1313       N  0.76356762  0.89620395  0.47421193    -0.37520
N1314       N  0.82617095  0.94756406  0.73427706    -0.37520
C1315       C  0.74425528  0.92111243  0.85546201    -0.04190
C1316       C  0.71688439  0.93376370  0.88401026    -0.01300
C1317       C  0.72099001  0.95900939  0.92486408     0.03690
C1318       C  0.75185168  0.97488680  0.93095537    -0.04180
C1319       C  0.77720947  0.96410013  0.89422401    -0.01290
C1320       C  0.77511022  0.93310144  0.86914778     0.03680
C1321       C  0.68499589  0.92014863  0.87227737     0.38330
C1322       C  0.79329600  0.98694512  0.85727314     0.38320
C1323       C  0.80439984  0.91663082  0.84898689     0.36750
C1324       C  0.69313626  0.96820531  0.95863725     0.36750
N1325       N  0.82776405  0.90303804  0.83402271    -0.38070
N1326       N  0.66955059  0.97362035  0.98374107    -0.38070
N1327       N  0.80522707  0.50346278  0.82346514    -0.37520
N1328       N  0.65960934  0.90908908  0.86295731    -0.37520
loop_ 
_geom_bond_atom_site_label_1 
_geom_bond_atom_site_label_2 
_geom_bond_distance 
_geom_bond_site_symmetry_2 
_ccdc_geom_bond_type 
C1          C156   1.523       .  S
C1          C460   1.504       .  S
C1          C500   1.388       .  D
C2          C114   1.532       .  S
C2          C474   1.532   1_545  S
C2          C499   1.388   1_554  D
C3            C4   1.402       .  A
C3            C8   1.409       .  A
C3          C111   1.496       .  S
C4            C5   1.398       .  A
C4            H9   1.084       .  S
C5            C6   1.394       .  A
C5          C125   1.479       .  S
C6            C7   1.406       .  A
C6           H10   1.084       .  S
C7            C8   1.410       .  A
C7           C51   1.478       .  S
C8           H11   1.084       .  S
C12          C13   1.398       .  A
C12          C17   1.408       .  A
C12         C139   1.492       .  S
C13          C14   1.400       .  A
C13          H18   1.084       .  S
C14          C15   1.396       .  A
C14         C153   1.476       .  S
C15          C16   1.408       .  A
C15          H19   1.084       .  S
C16          C17   1.410       .  A
C16          C52   1.479       .  S
C17          H20   1.084       .  S
C21          C72   1.519   1_655  S
C21         C761   1.519       .  S
C21         C188   1.384       .  D
C22          C58   1.516   1_655  S
C22         C750   1.520       .  S
C22         C187   1.384   1_554  D
C23          C24   1.399       .  A
C23          C28   1.398       .  A
C23          C55   1.486       .  S
C24          C25   1.410       .  A
C24          H29   1.084       .  S
C25          C26   1.410       .  A
C25          C53   1.476       .  S
C26          C27   1.402       .  A
C26          H30   1.085       .  S
C27          C28   1.399       .  A
C27          C69   1.489       .  S
C28          H31   1.084       .  S
C32          C33   1.398       .  A
C32          C37   1.402       .  A
C32          C83   1.489       .  S
C33          C34   1.399       .  A
C33          H38   1.084       .  S
C34          C35   1.404       .  A
C34         C100   1.493       .  S
C35          C36   1.412       .  A
C35          H39   1.084       .  S
C36          C37   1.412       .  A
C36          C54   1.481       .  S
C37          H40   1.084       .  S
O41          V49   1.889       .  S
O41          C51   1.263       .  A
O42          V49   1.891       .  S
O42          C52   1.263       .  A
O43          V49   1.898       .  S
O43          C53   1.264       .  A
O44          V49   1.902       .  S
O44          C54   1.265       .  A
O45          V50   1.900       .  S
O45          C54   1.265       .  A
O46          V50   1.895       .  S
O46          C53   1.264       .  A
O47          V50   1.906       .  S
O47          C52   1.266       .  A
O48          V50   1.906       .  S
O48          C51   1.266       .  A
V49          V50   2.086       .  T
C55          C56   1.408       .  A
C55          C60   1.404       .  A
C56          C57   1.416       .  A
C56          C61   1.452       .  S
C57          C58   1.424       .  A
C57          C64   1.448       .  S
C58          C59   1.423       .  A
C59          C60   1.406       .  A
C59          C62   1.449       .  S
C60          C63   1.454       .  S
C61          N68   1.157       .  T
C62          N67   1.157   1_455  T
C63          N65   1.157       .  T
C64         N730   1.157   1_554  T
N66         C728   1.157   1_556  T
C69          C70   1.409       .  A
C69          C74   1.405       .  A
C70          C71   1.417       .  A
C70          C75   1.452       .  S
C71          C72   1.425       .  A
C71          C78   1.447       .  S
C72          C73   1.424       .  A
C73          C74   1.407       .  A
C73          C76   1.449       .  S
C74          C77   1.455       .  S
C75          N82   1.157       .  T
C76         N745   1.157   1_455  T
C77          N79   1.157       .  T
C78          N80   1.157       .  T
N81         C740   1.157       .  T
C83          C84   1.404       .  A
C83          C88   1.408       .  A
C84          C85   1.407       .  A
C84          C89   1.455       .  S
C85          C86   1.426       .  A
C85          C92   1.449       .  S
C86         C686   1.520       .  S
C86          C87   1.425       .  A
C87          C88   1.418       .  A
C87          C90   1.447       .  S
C88          C91   1.451       .  S
C89          N96   1.157       .  T
C90          N95   1.157       .  T
C91          N93   1.157       .  T
C92         N758   1.157       .  T
N94         C756   1.157   1_455  T
C97         C685   1.519       .  S
C97          C98   1.423       .  A
C97         C102   1.423       .  A
C98          C99   1.418       .  A
C98         C103   1.448       .  S
C99         C100   1.411       .  A
C99         C106   1.451       .  S
C100        C101   1.407       .  A
C101        C102   1.408       .  A
C101        C104   1.455       .  S
C102        C105   1.450       .  S
C103        N110   1.157       .  T
C104        N109   1.157       .  T
C105        N771   1.157       .  T
C106        N108   1.157       .  T
N107        C769   1.157   1_455  T
C111        C112   1.408       .  A
C111        C116   1.406       .  A
C112        C113   1.415       .  A
C112        C117   1.453       .  S
C113        C114   1.425       .  A
C113        C120   1.449       .  S
C114        C115   1.428       .  A
C115        C116   1.416       .  A
C115        C118   1.441       .  S
C116        C119   1.456       .  S
C117        N124   1.157       .  T
C118        N123   1.157       .  T
C119        N121   1.157       .  T
C120        N454   1.157   1_545  T
N122        C452   1.157       .  T
C125        C126   1.406       .  A
C125        C130   1.406       .  A
C126        C127   1.410       .  A
C126        C131   1.451       .  S
C127        C128   1.415       .  A
C127        C134   1.445       .  S
C128        C333   1.504       .  S
C128        C129   1.419       .  A
C129        C130   1.409       .  A
C129        C132   1.453       .  S
C130        C133   1.452       .  S
C131        N138   1.157       .  T
C132        N137   1.158       .  T
C133        N135   1.157       .  T
C134        N136   1.157       .  T
C139        C140   1.414       .  A
C139        C144   1.408       .  A
C140        C141   1.412       .  A
C140        C145   1.449       .  S
C141        C142   1.416       .  A
C141        C148   1.446       .  S
C142        C334   1.532       .  S
C142        C143   1.417       .  A
C143        C144   1.408       .  A
C143        C146   1.441       .  S
C144        C147   1.450       .  S
C145        N152   1.156       .  T
C146        N151   1.157   1_554  T
C147        N149   1.157       .  T
C148        N482   1.157       .  T
N150        C480   1.157   1_545  T
C153        C154   1.405       .  A
C153        C158   1.397       .  A
C154        C155   1.421       .  A
C154        C159   1.449       .  S
C155        C156   1.430       .  A
C155        C162   1.443       .  S
C156        C157   1.424       .  A
C157        C158   1.392       .  A
C157        C160   1.441       .  S
C158        C161   1.451       .  S
C159        N166   1.157       .  T
C160        N497   1.159       .  T
C161        N163   1.157       .  T
C162        N164   1.156       .  T
N165        C492   1.159   1_545  T
C167        C626   1.504       .  S
C167        C322   1.523       .  S
C167        C334   1.388   1_556  D
C168        C280   1.532       .  S
C168        C640   1.532   1_545  S
C168        C333   1.388       .  D
C169        C170   1.402       .  A
C169        C174   1.409       .  A
C169        C277   1.496       .  S
C170        C171   1.398       .  A
C170        H175   1.084       .  S
C171        C172   1.394       .  A
C171        C291   1.479       .  S
C172        C173   1.406       .  A
C172        H176   1.084       .  S
C173        C174   1.410       .  A
C173        C217   1.478       .  S
C174        H177   1.084       .  S
C178        C179   1.398       .  A
C178        C183   1.408       .  A
C178        C305   1.492       .  S
C179        C180   1.400       .  A
C179        H184   1.084       .  S
C180        C181   1.396       .  A
C180        C319   1.476       .  S
C181        C182   1.408       .  A
C181        H185   1.084       .  S
C182        C183   1.410       .  A
C182        C218   1.479       .  S
C183        H186   1.084       .  S
C187        C238   1.519   1_655  S
C187        C927   1.519       .  S
C188        C224   1.516   1_655  S
C188        C916   1.520       .  S
C189        C190   1.399       .  A
C189        C194   1.398       .  A
C189        C221   1.486       .  S
C190        C191   1.410       .  A
C190        H195   1.084       .  S
C191        C192   1.410       .  A
C191        C219   1.476       .  S
C192        C193   1.402       .  A
C192        H196   1.085       .  S
C193        C194   1.399       .  A
C193        C235   1.489       .  S
C194        H197   1.084       .  S
C198        C199   1.398       .  A
C198        C203   1.402       .  A
C198        C249   1.489       .  S
C199        C200   1.399       .  A
C199        H204   1.084       .  S
C200        C201   1.404       .  A
C200        C266   1.493       .  S
C201        C202   1.412       .  A
C201        H205   1.084       .  S
C202        C203   1.412       .  A
C202        C220   1.481       .  S
C203        H206   1.084       .  S
O207        V215   1.889       .  S
O207        C217   1.263       .  A
O208        V215   1.891       .  S
O208        C218   1.263       .  A
O209        V215   1.898       .  S
O209        C219   1.264       .  A
O210        V215   1.902       .  S
O210        C220   1.265       .  A
O211        V216   1.900       .  S
O211        C220   1.265       .  A
O212        V216   1.895       .  S
O212        C219   1.264       .  A
O213        V216   1.906       .  S
O213        C218   1.266       .  A
O214        V216   1.906       .  S
O214        C217   1.266       .  A
V215        V216   2.086       .  T
C221        C222   1.408       .  A
C221        C226   1.404       .  A
C222        C223   1.416       .  A
C222        C227   1.452       .  S
C223        C224   1.424       .  A
C223        C230   1.448       .  S
C224        C225   1.423       .  A
C225        C226   1.406       .  A
C225        C228   1.449       .  S
C226        C229   1.454       .  S
C227        N234   1.157       .  T
C228        N233   1.157   1_455  T
C229        N231   1.157       .  T
C230        N896   1.157       .  T
N232        C894   1.157       .  T
C235        C236   1.409       .  A
C235        C240   1.405       .  A
C236        C237   1.417       .  A
C236        C241   1.452       .  S
C237        C238   1.425       .  A
C237        C244   1.447       .  S
C238        C239   1.424       .  A
C239        C240   1.407       .  A
C239        C242   1.449       .  S
C240        C243   1.455       .  S
C241        N248   1.157       .  T
C242        N911   1.157   1_455  T
C243        N245   1.157       .  T
C244        N246   1.157       .  T
N247        C906   1.157       .  T
C249        C250   1.404       .  A
C249        C254   1.408       .  A
C250        C251   1.407       .  A
C250        C255   1.455       .  S
C251        C252   1.426       .  A
C251        C258   1.449       .  S
C252        C852   1.520       .  S
C252        C253   1.425       .  A
C253        C254   1.418       .  A
C253        C256   1.447       .  S
C254        C257   1.451       .  S
C255        N262   1.157       .  T
C256        N261   1.157       .  T
C257        N259   1.157       .  T
C258        N924   1.157       .  T
N260        C922   1.157   1_455  T
C263        C851   1.519       .  S
C263        C264   1.423       .  A
C263        C268   1.423       .  A
C264        C265   1.418       .  A
C264        C269   1.448       .  S
C265        C266   1.411       .  A
C265        C272   1.451       .  S
C266        C267   1.407       .  A
C267        C268   1.408       .  A
C267        C270   1.455       .  S
C268        C271   1.450       .  S
C269        N276   1.157   1_556  T
C270        N275   1.157       .  T
C271        N937   1.157       .  T
C272        N274   1.157       .  T
N273        C935   1.157   1_455  T
C277        C278   1.408       .  A
C277        C282   1.406       .  A
C278        C279   1.415       .  A
C278        C283   1.453       .  S
C279        C280   1.425       .  A
C279        C286   1.449       .  S
C280        C281   1.428       .  A
C281        C282   1.416       .  A
C281        C284   1.441       .  S
C282        C285   1.456       .  S
C283        N290   1.157       .  T
C284        N289   1.157       .  T
C285        N287   1.157       .  T
C286        N620   1.157   1_545  T
N288        C618   1.157       .  T
C291        C292   1.406       .  A
C291        C296   1.406       .  A
C292        C293   1.410       .  A
C292        C297   1.451       .  S
C293        C294   1.415       .  A
C293        C300   1.445       .  S
C294        C499   1.504       .  S
C294        C295   1.419       .  A
C295        C296   1.409       .  A
C295        C298   1.453       .  S
C296        C299   1.452       .  S
C297        N304   1.157       .  T
C298        N303   1.158       .  T
C299        N301   1.157       .  T
C300        N302   1.157   1_556  T
C305        C306   1.414       .  A
C305        C310   1.408       .  A
C306        C307   1.412       .  A
C306        C311   1.449       .  S
C307        C308   1.416       .  A
C307        C314   1.446       .  S
C308        C500   1.532       .  S
C308        C309   1.417       .  A
C309        C310   1.408       .  A
C309        C312   1.441       .  S
C310        C313   1.450       .  S
C311        N318   1.156       .  T
C312        N317   1.157       .  T
C313        N315   1.157       .  T
C314        N648   1.157       .  T
N316        C646   1.157   1_545  T
C319        C320   1.405       .  A
C319        C324   1.397       .  A
C320        C321   1.421       .  A
C320        C325   1.449       .  S
C321        C322   1.430       .  A
C321        C328   1.443       .  S
C322        C323   1.424       .  A
C323        C324   1.392       .  A
C323        C326   1.441       .  S
C324        C327   1.451       .  S
C325        N332   1.157       .  T
C326        N663   1.159       .  T
C327        N329   1.157       .  T
C328        N330   1.156       .  T
N331        C658   1.159   1_545  T
C333        C488   1.523   1_545  S
C334        C446   1.532       .  S
C335        C336   1.402       .  A
C335        C340   1.409       .  A
C335        C443   1.496       .  S
C336        C337   1.398       .  A
C336        H341   1.084       .  S
C337        C338   1.394       .  A
C337        C457   1.479       .  S
C338        C339   1.406       .  A
C338        H342   1.084       .  S
C339        C340   1.410       .  A
C339        C383   1.478       .  S
C340        H343   1.084       .  S
C344        C345   1.398       .  A
C344        C349   1.408       .  A
C344        C471   1.492       .  S
C345        C346   1.400       .  A
C345        H350   1.084       .  S
C346        C347   1.396       .  A
C346        C485   1.476       .  S
C347        C348   1.408       .  A
C347        H351   1.084       .  S
C348        C349   1.410       .  A
C348        C384   1.479       .  S
C349        H352   1.084       .  S
C353        C404   1.519   1_655  S
C353       C1093   1.519       .  S
C353        C520   1.384       .  D
C354        C390   1.516   1_655  S
C354       C1082   1.520       .  S
C354        C519   1.384   1_554  D
C355        C356   1.399       .  A
C355        C360   1.398       .  A
C355        C387   1.486       .  S
C356        C357   1.410       .  A
C356        H361   1.084       .  S
C357        C358   1.410       .  A
C357        C385   1.476       .  S
C358        C359   1.402       .  A
C358        H362   1.085       .  S
C359        C360   1.399       .  A
C359        C401   1.489       .  S
C360        H363   1.084       .  S
C364        C365   1.398       .  A
C364        C369   1.402       .  A
C364        C415   1.489       .  S
C365        C366   1.399       .  A
C365        H370   1.084       .  S
C366        C367   1.404       .  A
C366        C432   1.493       .  S
C367        C368   1.412       .  A
C367        H371   1.084       .  S
C368        C369   1.412       .  A
C368        C386   1.481       .  S
C369        H372   1.084       .  S
O373        V381   1.889       .  S
O373        C383   1.263       .  A
O374        V381   1.891       .  S
O374        C384   1.263       .  A
O375        V381   1.898       .  S
O375        C385   1.264       .  A
O376        V381   1.902       .  S
O376        C386   1.265       .  A
O377        V382   1.900       .  S
O377        C386   1.265       .  A
O378        V382   1.895       .  S
O378        C385   1.264       .  A
O379        V382   1.906       .  S
O379        C384   1.266       .  A
O380        V382   1.906       .  S
O380        C383   1.266       .  A
V381        V382   2.086       .  T
C387        C388   1.408       .  A
C387        C392   1.404       .  A
C388        C389   1.416       .  A
C388        C393   1.452       .  S
C389        C390   1.424       .  A
C389        C396   1.448       .  S
C390        C391   1.423       .  A
C391        C392   1.406       .  A
C391        C394   1.449       .  S
C392        C395   1.454       .  S
C393        N400   1.157       .  T
C394        N399   1.157   1_455  T
C395        N397   1.157       .  T
C396       N1062   1.157   1_554  T
N398       C1060   1.157   1_556  T
C401        C402   1.409       .  A
C401        C406   1.405       .  A
C402        C403   1.417       .  A
C402        C407   1.452       .  S
C403        C404   1.425       .  A
C403        C410   1.447       .  S
C404        C405   1.424       .  A
C405        C406   1.407       .  A
C405        C408   1.449       .  S
C406        C409   1.455       .  S
C407        N414   1.157       .  T
C408       N1077   1.157   1_455  T
C409        N411   1.157       .  T
C410        N412   1.157       .  T
N413       C1072   1.157       .  T
C415        C416   1.404       .  A
C415        C420   1.408       .  A
C416        C417   1.407       .  A
C416        C421   1.455       .  S
C417        C418   1.426       .  A
C417        C424   1.449       .  S
C418       C1018   1.520       .  S
C418        C419   1.425       .  A
C419        C420   1.418       .  A
C419        C422   1.447       .  S
C420        C423   1.451       .  S
C421        N428   1.157       .  T
C422        N427   1.157       .  T
C423        N425   1.157       .  T
C424       N1090   1.157       .  T
N426       C1088   1.157   1_455  T
C429       C1017   1.519       .  S
C429        C430   1.423       .  A
C429        C434   1.423       .  A
C430        C431   1.418       .  A
C430        C435   1.448       .  S
C431        C432   1.411       .  A
C431        C438   1.451       .  S
C432        C433   1.407       .  A
C433        C434   1.408       .  A
C433        C436   1.455       .  S
C434        C437   1.450       .  S
C435        N442   1.157       .  T
C436        N441   1.157       .  T
C437       N1103   1.157       .  T
C438        N440   1.157       .  T
N439       C1101   1.157   1_455  T
C443        C444   1.408       .  A
C443        C448   1.406       .  A
C444        C445   1.415       .  A
C444        C449   1.453       .  S
C445        C446   1.425       .  A
C445        C452   1.449       .  S
C446        C447   1.428       .  A
C447        C448   1.416       .  A
C447        C450   1.441       .  S
C448        C451   1.456       .  S
C449        N456   1.157       .  T
C450        N455   1.157       .  T
C451        N453   1.157       .  T
C457        C458   1.406       .  A
C457        C462   1.406       .  A
C458        C459   1.410       .  A
C458        C463   1.451       .  S
C459        C460   1.415       .  A
C459        C466   1.445       .  S
C460        C461   1.419       .  A
C461        C462   1.409       .  A
C461        C464   1.453       .  S
C462        C465   1.452       .  S
C463        N470   1.157       .  T
C464        N469   1.158       .  T
C465        N467   1.157       .  T
C466        N468   1.157       .  T
C471        C472   1.414       .  A
C471        C476   1.408       .  A
C472        C473   1.412       .  A
C472        C477   1.449       .  S
C473        C474   1.416       .  A
C473        C480   1.446       .  S
C474        C475   1.417       .  A
C475        C476   1.408       .  A
C475        C478   1.441       .  S
C476        C479   1.450       .  S
C477        N484   1.156       .  T
C478        N483   1.157   1_554  T
C479        N481   1.157       .  T
C485        C486   1.405       .  A
C485        C490   1.397       .  A
C486        C487   1.421       .  A
C486        C491   1.449       .  S
C487        C488   1.430       .  A
C487        C494   1.443       .  S
C488        C489   1.424       .  A
C489        C490   1.392       .  A
C489        C492   1.441       .  S
C490        C493   1.451       .  S
C491        N498   1.157       .  T
C493        N495   1.157       .  T
C494        N496   1.156       .  T
C499        C654   1.523   1_545  S
C500        C612   1.532       .  S
C501        C502   1.402       .  A
C501        C506   1.409       .  A
C501        C609   1.496       .  S
C502        C503   1.398       .  A
C502        H507   1.084       .  S
C503        C504   1.394       .  A
C503        C623   1.479       .  S
C504        C505   1.406       .  A
C504        H508   1.084       .  S
C505        C506   1.410       .  A
C505        C549   1.478       .  S
C506        H509   1.084       .  S
C510        C511   1.398       .  A
C510        C515   1.408       .  A
C510        C637   1.492       .  S
C511        C512   1.400       .  A
C511        H516   1.084       .  S
C512        C513   1.396       .  A
C512        C651   1.476       .  S
C513        C514   1.408       .  A
C513        H517   1.084       .  S
C514        C515   1.410       .  A
C514        C550   1.479       .  S
C515        H518   1.084       .  S
C519        C570   1.519   1_655  S
C519       C1259   1.519       .  S
C520        C556   1.516   1_655  S
C520       C1248   1.520       .  S
C521        C522   1.399       .  A
C521        C526   1.398       .  A
C521        C553   1.486       .  S
C522        C523   1.410       .  A
C522        H527   1.084       .  S
C523        C524   1.410       .  A
C523        C551   1.476       .  S
C524        C525   1.402       .  A
C524        H528   1.085       .  S
C525        C526   1.399       .  A
C525        C567   1.489       .  S
C526        H529   1.084       .  S
C530        C531   1.398       .  A
C530        C535   1.402       .  A
C530        C581   1.489       .  S
C531        C532   1.399       .  A
C531        H536   1.084       .  S
C532        C533   1.404       .  A
C532        C598   1.493       .  S
C533        C534   1.412       .  A
C533        H537   1.084       .  S
C534        C535   1.412       .  A
C534        C552   1.481       .  S
C535        H538   1.084       .  S
O539        V547   1.889       .  S
O539        C549   1.263       .  A
O540        V547   1.891       .  S
O540        C550   1.263       .  A
O541        V547   1.898       .  S
O541        C551   1.264       .  A
O542        V547   1.902       .  S
O542        C552   1.265       .  A
O543        V548   1.900       .  S
O543        C552   1.265       .  A
O544        V548   1.895       .  S
O544        C551   1.264       .  A
O545        V548   1.906       .  S
O545        C550   1.266       .  A
O546        V548   1.906       .  S
O546        C549   1.266       .  A
V547        V548   2.086       .  T
C553        C554   1.408       .  A
C553        C558   1.404       .  A
C554        C555   1.416       .  A
C554        C559   1.452       .  S
C555        C556   1.424       .  A
C555        C562   1.448       .  S
C556        C557   1.423       .  A
C557        C558   1.406       .  A
C557        C560   1.449       .  S
C558        C561   1.454       .  S
C559        N566   1.157       .  T
C560        N565   1.157   1_455  T
C561        N563   1.157       .  T
C562       N1228   1.157       .  T
N564       C1226   1.157       .  T
C567        C568   1.409       .  A
C567        C572   1.405       .  A
C568        C569   1.417       .  A
C568        C573   1.452       .  S
C569        C570   1.425       .  A
C569        C576   1.447       .  S
C570        C571   1.424       .  A
C571        C572   1.407       .  A
C571        C574   1.449       .  S
C572        C575   1.455       .  S
C573        N580   1.157       .  T
C574       N1243   1.157   1_455  T
C575        N577   1.157       .  T
C576        N578   1.157       .  T
N579       C1238   1.157       .  T
C581        C582   1.404       .  A
C581        C586   1.408       .  A
C582        C583   1.407       .  A
C582        C587   1.455       .  S
C583        C584   1.426       .  A
C583        C590   1.449       .  S
C584       C1184   1.520       .  S
C584        C585   1.425       .  A
C585        C586   1.418       .  A
C585        C588   1.447       .  S
C586        C589   1.451       .  S
C587        N594   1.157       .  T
C588        N593   1.157       .  T
C589        N591   1.157       .  T
C590       N1256   1.157       .  T
N592       C1254   1.157   1_455  T
C595       C1183   1.519       .  S
C595        C596   1.423       .  A
C595        C600   1.423       .  A
C596        C597   1.418       .  A
C596        C601   1.448       .  S
C597        C598   1.411       .  A
C597        C604   1.451       .  S
C598        C599   1.407       .  A
C599        C600   1.408       .  A
C599        C602   1.455       .  S
C600        C603   1.450       .  S
C601        N608   1.157   1_556  T
C602        N607   1.157       .  T
C603       N1269   1.157       .  T
C604        N606   1.157       .  T
N605       C1267   1.157   1_455  T
C609        C610   1.408       .  A
C609        C614   1.406       .  A
C610        C611   1.415       .  A
C610        C615   1.453       .  S
C611        C612   1.425       .  A
C611        C618   1.449       .  S
C612        C613   1.428       .  A
C613        C614   1.416       .  A
C613        C616   1.441       .  S
C614        C617   1.456       .  S
C615        N622   1.157       .  T
C616        N621   1.157       .  T
C617        N619   1.157       .  T
C623        C624   1.406       .  A
C623        C628   1.406       .  A
C624        C625   1.410       .  A
C624        C629   1.451       .  S
C625        C626   1.415       .  A
C625        C632   1.445       .  S
C626        C627   1.419       .  A
C627        C628   1.409       .  A
C627        C630   1.453       .  S
C628        C631   1.452       .  S
C629        N636   1.157       .  T
C630        N635   1.158       .  T
C631        N633   1.157       .  T
C632        N634   1.157   1_556  T
C637        C638   1.414       .  A
C637        C642   1.408       .  A
C638        C639   1.412       .  A
C638        C643   1.449       .  S
C639        C640   1.416       .  A
C639        C646   1.446       .  S
C640        C641   1.417       .  A
C641        C642   1.408       .  A
C641        C644   1.441       .  S
C642        C645   1.450       .  S
C643        N650   1.156       .  T
C644        N649   1.157       .  T
C645        N647   1.157       .  T
C651        C652   1.405       .  A
C651        C656   1.397       .  A
C652        C653   1.421       .  A
C652        C657   1.449       .  S
C653        C654   1.430       .  A
C653        C660   1.443       .  S
C654        C655   1.424       .  A
C655        C656   1.392       .  A
C655        C658   1.441       .  S
C656        C659   1.451       .  S
C657        N664   1.157       .  T
C659        N661   1.157       .  T
C660        N662   1.156       .  T
C665       C1124   1.504       .  S
C665        C820   1.523       .  S
C665       C1164   1.388       .  D
C666        C778   1.532       .  S
C666       C1138   1.532   1_545  S
C666       C1163   1.388   1_554  D
C667        C668   1.402       .  A
C667        C672   1.409       .  A
C667        C775   1.496       .  S
C668        C669   1.398       .  A
C668        H673   1.084       .  S
C669        C670   1.394       .  A
C669        C789   1.479       .  S
C670        C671   1.406       .  A
C670        H674   1.084       .  S
C671        C672   1.410       .  A
C671        C715   1.478       .  S
C672        H675   1.084       .  S
C676        C677   1.398       .  A
C676        C681   1.408       .  A
C676        C803   1.492       .  S
C677        C678   1.400       .  A
C677        H682   1.084       .  S
C678        C679   1.396       .  A
C678        C817   1.476       .  S
C679        C680   1.408       .  A
C679        H683   1.084       .  S
C680        C681   1.410       .  A
C680        C716   1.479       .  S
C681        H684   1.084       .  S
C685        C736   1.519       .  S
C685        C852   1.384       .  D
C686        C722   1.516       .  S
C686        C851   1.384   1_554  D
C687        C688   1.399       .  A
C687        C692   1.398       .  A
C687        C719   1.486       .  S
C688        C689   1.410       .  A
C688        H693   1.084       .  S
C689        C690   1.410       .  A
C689        C717   1.476       .  S
C690        C691   1.402       .  A
C690        H694   1.085       .  S
C691        C692   1.399       .  A
C691        C733   1.489       .  S
C692        H695   1.084       .  S
C696        C697   1.398       .  A
C696        C701   1.402       .  A
C696        C747   1.489       .  S
C697        C698   1.399       .  A
C697        H702   1.084       .  S
C698        C699   1.404       .  A
C698        C764   1.493       .  S
C699        C700   1.412       .  A
C699        H703   1.084       .  S
C700        C701   1.412       .  A
C700        C718   1.481       .  S
C701        H704   1.084       .  S
O705        V713   1.889       .  S
O705        C715   1.263       .  A
O706        V713   1.891       .  S
O706        C716   1.263       .  A
O707        V713   1.898       .  S
O707        C717   1.264       .  A
O708        V713   1.902       .  S
O708        C718   1.265       .  A
O709        V714   1.900       .  S
O709        C718   1.265       .  A
O710        V714   1.895       .  S
O710        C717   1.264       .  A
O711        V714   1.906       .  S
O711        C716   1.266       .  A
O712        V714   1.906       .  S
O712        C715   1.266       .  A
V713        V714   2.086       .  T
C719        C720   1.408       .  A
C719        C724   1.404       .  A
C720        C721   1.416       .  A
C720        C725   1.452       .  S
C721        C722   1.424       .  A
C721        C728   1.448       .  S
C722        C723   1.423       .  A
C723        C724   1.406       .  A
C723        C726   1.449       .  S
C724        C727   1.454       .  S
C725        N732   1.157       .  T
C726        N731   1.157       .  T
C727        N729   1.157       .  T
C733        C734   1.409       .  A
C733        C738   1.405       .  A
C734        C735   1.417       .  A
C734        C739   1.452       .  S
C735        C736   1.425       .  A
C735        C742   1.447       .  S
C736        C737   1.424       .  A
C737        C738   1.407       .  A
C737        C740   1.449       .  S
C738        C741   1.455       .  S
C739        N746   1.157       .  T
C741        N743   1.157       .  T
C742        N744   1.157       .  T
C747        C748   1.404       .  A
C747        C752   1.408       .  A
C748        C749   1.407       .  A
C748        C753   1.455       .  S
C749        C750   1.426       .  A
C749        C756   1.449       .  S
C750        C751   1.425       .  A
C751        C752   1.418       .  A
C751        C754   1.447       .  S
C752        C755   1.451       .  S
C753        N760   1.157       .  T
C754        N759   1.157       .  T
C755        N757   1.157       .  T
C761        C762   1.423       .  A
C761        C766   1.423       .  A
C762        C763   1.418       .  A
C762        C767   1.448       .  S
C763        C764   1.411       .  A
C763        C770   1.451       .  S
C764        C765   1.407       .  A
C765        C766   1.408       .  A
C765        C768   1.455       .  S
C766        C769   1.450       .  S
C767        N774   1.157       .  T
C768        N773   1.157       .  T
C770        N772   1.157       .  T
C775        C776   1.408       .  A
C775        C780   1.406       .  A
C776        C777   1.415       .  A
C776        C781   1.453       .  S
C777        C778   1.425       .  A
C777        C784   1.449       .  S
C778        C779   1.428       .  A
C779        C780   1.416       .  A
C779        C782   1.441       .  S
C780        C783   1.456       .  S
C781        N788   1.157       .  T
C782        N787   1.157       .  T
C783        N785   1.157       .  T
C784       N1118   1.157   1_545  T
N786       C1116   1.157       .  T
C789        C790   1.406       .  A
C789        C794   1.406       .  A
C790        C791   1.410       .  A
C790        C795   1.451       .  S
C791        C792   1.415       .  A
C791        C798   1.445       .  S
C792        C997   1.504       .  S
C792        C793   1.419       .  A
C793        C794   1.409       .  A
C793        C796   1.453       .  S
C794        C797   1.452       .  S
C795        N802   1.157       .  T
C796        N801   1.158       .  T
C797        N799   1.157       .  T
C798        N800   1.157       .  T
C803        C804   1.414       .  A
C803        C808   1.408       .  A
C804        C805   1.412       .  A
C804        C809   1.449       .  S
C805        C806   1.416       .  A
C805        C812   1.446       .  S
C806        C998   1.532       .  S
C806        C807   1.417       .  A
C807        C808   1.408       .  A
C807        C810   1.441       .  S
C808        C811   1.450       .  S
C809        N816   1.156       .  T
C810        N815   1.157   1_554  T
C811        N813   1.157       .  T
C812       N1146   1.157       .  T
N814       C1144   1.157   1_545  T
C817        C818   1.405       .  A
C817        C822   1.397       .  A
C818        C819   1.421       .  A
C818        C823   1.449       .  S
C819        C820   1.430       .  A
C819        C826   1.443       .  S
C820        C821   1.424       .  A
C821        C822   1.392       .  A
C821        C824   1.441       .  S
C822        C825   1.451       .  S
C823        N830   1.157       .  T
C824       N1161   1.159       .  T
C825        N827   1.157       .  T
C826        N828   1.156       .  T
N829       C1156   1.159   1_545  T
C831       C1290   1.504       .  S
C831        C986   1.523       .  S
C831        C998   1.388   1_556  D
C832        C944   1.532       .  S
C832       C1304   1.532   1_545  S
C832        C997   1.388       .  D
C833        C834   1.402       .  A
C833        C838   1.409       .  A
C833        C941   1.496       .  S
C834        C835   1.398       .  A
C834        H839   1.084       .  S
C835        C836   1.394       .  A
C835        C955   1.479       .  S
C836        C837   1.406       .  A
C836        H840   1.084       .  S
C837        C838   1.410       .  A
C837        C881   1.478       .  S
C838        H841   1.084       .  S
C842        C843   1.398       .  A
C842        C847   1.408       .  A
C842        C969   1.492       .  S
C843        C844   1.400       .  A
C843        H848   1.084       .  S
C844        C845   1.396       .  A
C844        C983   1.476       .  S
C845        C846   1.408       .  A
C845        H849   1.084       .  S
C846        C847   1.410       .  A
C846        C882   1.479       .  S
C847        H850   1.084       .  S
C851        C902   1.519       .  S
C852        C888   1.516       .  S
C853        C854   1.399       .  A
C853        C858   1.398       .  A
C853        C885   1.486       .  S
C854        C855   1.410       .  A
C854        H859   1.084       .  S
C855        C856   1.410       .  A
C855        C883   1.476       .  S
C856        C857   1.402       .  A
C856        H860   1.085       .  S
C857        C858   1.399       .  A
C857        C899   1.489       .  S
C858        H861   1.084       .  S
C862        C863   1.398       .  A
C862        C867   1.402       .  A
C862        C913   1.489       .  S
C863        C864   1.399       .  A
C863        H868   1.084       .  S
C864        C865   1.404       .  A
C864        C930   1.493       .  S
C865        C866   1.412       .  A
C865        H869   1.084       .  S
C866        C867   1.412       .  A
C866        C884   1.481       .  S
C867        H870   1.084       .  S
O871        V879   1.889       .  S
O871        C881   1.263       .  A
O872        V879   1.891       .  S
O872        C882   1.263       .  A
O873        V879   1.898       .  S
O873        C883   1.264       .  A
O874        V879   1.902       .  S
O874        C884   1.265       .  A
O875        V880   1.900       .  S
O875        C884   1.265       .  A
O876        V880   1.895       .  S
O876        C883   1.264       .  A
O877        V880   1.906       .  S
O877        C882   1.266       .  A
O878        V880   1.906       .  S
O878        C881   1.266       .  A
V879        V880   2.086       .  T
C885        C886   1.408       .  A
C885        C890   1.404       .  A
C886        C887   1.416       .  A
C886        C891   1.452       .  S
C887        C888   1.424       .  A
C887        C894   1.448       .  S
C888        C889   1.423       .  A
C889        C890   1.406       .  A
C889        C892   1.449       .  S
C890        C893   1.454       .  S
C891        N898   1.157       .  T
C892        N897   1.157       .  T
C893        N895   1.157       .  T
C899        C900   1.409       .  A
C899        C904   1.405       .  A
C900        C901   1.417       .  A
C900        C905   1.452       .  S
C901        C902   1.425       .  A
C901        C908   1.447       .  S
C902        C903   1.424       .  A
C903        C904   1.407       .  A
C903        C906   1.449       .  S
C904        C907   1.455       .  S
C905        N912   1.157       .  T
C907        N909   1.157       .  T
C908        N910   1.157       .  T
C913        C914   1.404       .  A
C913        C918   1.408       .  A
C914        C915   1.407       .  A
C914        C919   1.455       .  S
C915        C916   1.426       .  A
C915        C922   1.449       .  S
C916        C917   1.425       .  A
C917        C918   1.418       .  A
C917        C920   1.447       .  S
C918        C921   1.451       .  S
C919        N926   1.157       .  T
C920        N925   1.157       .  T
C921        N923   1.157       .  T
C927        C928   1.423       .  A
C927        C932   1.423       .  A
C928        C929   1.418       .  A
C928        C933   1.448       .  S
C929        C930   1.411       .  A
C929        C936   1.451       .  S
C930        C931   1.407       .  A
C931        C932   1.408       .  A
C931        C934   1.455       .  S
C932        C935   1.450       .  S
C933        N940   1.157   1_556  T
C934        N939   1.157       .  T
C936        N938   1.157       .  T
C941        C942   1.408       .  A
C941        C946   1.406       .  A
C942        C943   1.415       .  A
C942        C947   1.453       .  S
C943        C944   1.425       .  A
C943        C950   1.449       .  S
C944        C945   1.428       .  A
C945        C946   1.416       .  A
C945        C948   1.441       .  S
C946        C949   1.456       .  S
C947        N954   1.157       .  T
C948        N953   1.157       .  T
C949        N951   1.157       .  T
C950       N1284   1.157   1_545  T
N952       C1282   1.157       .  T
C955        C956   1.406       .  A
C955        C960   1.406       .  A
C956        C957   1.410       .  A
C956        C961   1.451       .  S
C957        C958   1.415       .  A
C957        C964   1.445       .  S
C958       C1163   1.504       .  S
C958        C959   1.419       .  A
C959        C960   1.409       .  A
C959        C962   1.453       .  S
C960        C963   1.452       .  S
C961        N968   1.157       .  T
C962        N967   1.158       .  T
C963        N965   1.157       .  T
C964        N966   1.157   1_556  T
C969        C970   1.414       .  A
C969        C974   1.408       .  A
C970        C971   1.412       .  A
C970        C975   1.449       .  S
C971        C972   1.416       .  A
C971        C978   1.446       .  S
C972       C1164   1.532       .  S
C972        C973   1.417       .  A
C973        C974   1.408       .  A
C973        C976   1.441       .  S
C974        C977   1.450       .  S
C975        N982   1.156       .  T
C976        N981   1.157       .  T
C977        N979   1.157       .  T
C978       N1312   1.157       .  T
N980       C1310   1.157   1_545  T
C983        C984   1.405       .  A
C983        C988   1.397       .  A
C984        C985   1.421       .  A
C984        C989   1.449       .  S
C985        C986   1.430       .  A
C985        C992   1.443       .  S
C986        C987   1.424       .  A
C987        C988   1.392       .  A
C987        C990   1.441       .  S
C988        C991   1.451       .  S
C989        N996   1.157       .  T
C990       N1327   1.159       .  T
C991        N993   1.157       .  T
C992        N994   1.156       .  T
N995       C1322   1.159   1_545  T
C997       C1152   1.523   1_545  S
C998       C1110   1.532       .  S
C999       C1000   1.402       .  A
C999       C1004   1.409       .  A
C999       C1107   1.496       .  S
C1000      C1001   1.398       .  A
C1000      H1005   1.084       .  S
C1001      C1002   1.394       .  A
C1001      C1121   1.479       .  S
C1002      C1003   1.406       .  A
C1002      H1006   1.084       .  S
C1003      C1004   1.410       .  A
C1003      C1047   1.478       .  S
C1004      H1007   1.084       .  S
C1008      C1009   1.398       .  A
C1008      C1013   1.408       .  A
C1008      C1135   1.492       .  S
C1009      C1010   1.400       .  A
C1009      H1014   1.084       .  S
C1010      C1011   1.396       .  A
C1010      C1149   1.476       .  S
C1011      C1012   1.408       .  A
C1011      H1015   1.084       .  S
C1012      C1013   1.410       .  A
C1012      C1048   1.479       .  S
C1013      H1016   1.084       .  S
C1017      C1068   1.519       .  S
C1017      C1184   1.384       .  D
C1018      C1054   1.516       .  S
C1018      C1183   1.384   1_554  D
C1019      C1020   1.399       .  A
C1019      C1024   1.398       .  A
C1019      C1051   1.486       .  S
C1020      C1021   1.410       .  A
C1020      H1025   1.084       .  S
C1021      C1022   1.410       .  A
C1021      C1049   1.476       .  S
C1022      C1023   1.402       .  A
C1022      H1026   1.085       .  S
C1023      C1024   1.399       .  A
C1023      C1065   1.489       .  S
C1024      H1027   1.084       .  S
C1028      C1029   1.398       .  A
C1028      C1033   1.402       .  A
C1028      C1079   1.489       .  S
C1029      C1030   1.399       .  A
C1029      H1034   1.084       .  S
C1030      C1031   1.404       .  A
C1030      C1096   1.493       .  S
C1031      C1032   1.412       .  A
C1031      H1035   1.084       .  S
C1032      C1033   1.412       .  A
C1032      C1050   1.481       .  S
C1033      H1036   1.084       .  S
O1037      V1045   1.889       .  S
O1037      C1047   1.263       .  A
O1038      V1045   1.891       .  S
O1038      C1048   1.263       .  A
O1039      V1045   1.898       .  S
O1039      C1049   1.264       .  A
O1040      V1045   1.902       .  S
O1040      C1050   1.265       .  A
O1041      V1046   1.900       .  S
O1041      C1050   1.265       .  A
O1042      V1046   1.895       .  S
O1042      C1049   1.264       .  A
O1043      V1046   1.906       .  S
O1043      C1048   1.266       .  A
O1044      V1046   1.906       .  S
O1044      C1047   1.266       .  A
V1045      V1046   2.086       .  T
C1051      C1052   1.408       .  A
C1051      C1056   1.404       .  A
C1052      C1053   1.416       .  A
C1052      C1057   1.452       .  S
C1053      C1054   1.424       .  A
C1053      C1060   1.448       .  S
C1054      C1055   1.423       .  A
C1055      C1056   1.406       .  A
C1055      C1058   1.449       .  S
C1056      C1059   1.454       .  S
C1057      N1064   1.157       .  T
C1058      N1063   1.157       .  T
C1059      N1061   1.157       .  T
C1065      C1066   1.409       .  A
C1065      C1070   1.405       .  A
C1066      C1067   1.417       .  A
C1066      C1071   1.452       .  S
C1067      C1068   1.425       .  A
C1067      C1074   1.447       .  S
C1068      C1069   1.424       .  A
C1069      C1070   1.407       .  A
C1069      C1072   1.449       .  S
C1070      C1073   1.455       .  S
C1071      N1078   1.157       .  T
C1073      N1075   1.157       .  T
C1074      N1076   1.157       .  T
C1079      C1080   1.404       .  A
C1079      C1084   1.408       .  A
C1080      C1081   1.407       .  A
C1080      C1085   1.455       .  S
C1081      C1082   1.426       .  A
C1081      C1088   1.449       .  S
C1082      C1083   1.425       .  A
C1083      C1084   1.418       .  A
C1083      C1086   1.447       .  S
C1084      C1087   1.451       .  S
C1085      N1092   1.157       .  T
C1086      N1091   1.157       .  T
C1087      N1089   1.157       .  T
C1093      C1094   1.423       .  A
C1093      C1098   1.423       .  A
C1094      C1095   1.418       .  A
C1094      C1099   1.448       .  S
C1095      C1096   1.411       .  A
C1095      C1102   1.451       .  S
C1096      C1097   1.407       .  A
C1097      C1098   1.408       .  A
C1097      C1100   1.455       .  S
C1098      C1101   1.450       .  S
C1099      N1106   1.157       .  T
C1100      N1105   1.157       .  T
C1102      N1104   1.157       .  T
C1107      C1108   1.408       .  A
C1107      C1112   1.406       .  A
C1108      C1109   1.415       .  A
C1108      C1113   1.453       .  S
C1109      C1110   1.425       .  A
C1109      C1116   1.449       .  S
C1110      C1111   1.428       .  A
C1111      C1112   1.416       .  A
C1111      C1114   1.441       .  S
C1112      C1115   1.456       .  S
C1113      N1120   1.157       .  T
C1114      N1119   1.157       .  T
C1115      N1117   1.157       .  T
C1121      C1122   1.406       .  A
C1121      C1126   1.406       .  A
C1122      C1123   1.410       .  A
C1122      C1127   1.451       .  S
C1123      C1124   1.415       .  A
C1123      C1130   1.445       .  S
C1124      C1125   1.419       .  A
C1125      C1126   1.409       .  A
C1125      C1128   1.453       .  S
C1126      C1129   1.452       .  S
C1127      N1134   1.157       .  T
C1128      N1133   1.158       .  T
C1129      N1131   1.157       .  T
C1130      N1132   1.157       .  T
C1135      C1136   1.414       .  A
C1135      C1140   1.408       .  A
C1136      C1137   1.412       .  A
C1136      C1141   1.449       .  S
C1137      C1138   1.416       .  A
C1137      C1144   1.446       .  S
C1138      C1139   1.417       .  A
C1139      C1140   1.408       .  A
C1139      C1142   1.441       .  S
C1140      C1143   1.450       .  S
C1141      N1148   1.156       .  T
C1142      N1147   1.157   1_554  T
C1143      N1145   1.157       .  T
C1149      C1150   1.405       .  A
C1149      C1154   1.397       .  A
C1150      C1151   1.421       .  A
C1150      C1155   1.449       .  S
C1151      C1152   1.430       .  A
C1151      C1158   1.443       .  S
C1152      C1153   1.424       .  A
C1153      C1154   1.392       .  A
C1153      C1156   1.441       .  S
C1154      C1157   1.451       .  S
C1155      N1162   1.157       .  T
C1157      N1159   1.157       .  T
C1158      N1160   1.156       .  T
C1163      C1318   1.523   1_545  S
C1164      C1276   1.532       .  S
C1165      C1166   1.402       .  A
C1165      C1170   1.409       .  A
C1165      C1273   1.496       .  S
C1166      C1167   1.398       .  A
C1166      H1171   1.084       .  S
C1167      C1168   1.394       .  A
C1167      C1287   1.479       .  S
C1168      C1169   1.406       .  A
C1168      H1172   1.084       .  S
C1169      C1170   1.410       .  A
C1169      C1213   1.478       .  S
C1170      H1173   1.084       .  S
C1174      C1175   1.398       .  A
C1174      C1179   1.408       .  A
C1174      C1301   1.492       .  S
C1175      C1176   1.400       .  A
C1175      H1180   1.084       .  S
C1176      C1177   1.396       .  A
C1176      C1315   1.476       .  S
C1177      C1178   1.408       .  A
C1177      H1181   1.084       .  S
C1178      C1179   1.410       .  A
C1178      C1214   1.479       .  S
C1179      H1182   1.084       .  S
C1183      C1234   1.519       .  S
C1184      C1220   1.516       .  S
C1185      C1186   1.399       .  A
C1185      C1190   1.398       .  A
C1185      C1217   1.486       .  S
C1186      C1187   1.410       .  A
C1186      H1191   1.084       .  S
C1187      C1188   1.410       .  A
C1187      C1215   1.476       .  S
C1188      C1189   1.402       .  A
C1188      H1192   1.085       .  S
C1189      C1190   1.399       .  A
C1189      C1231   1.489       .  S
C1190      H1193   1.084       .  S
C1194      C1195   1.398       .  A
C1194      C1199   1.402       .  A
C1194      C1245   1.489       .  S
C1195      C1196   1.399       .  A
C1195      H1200   1.084       .  S
C1196      C1197   1.404       .  A
C1196      C1262   1.493       .  S
C1197      C1198   1.412       .  A
C1197      H1201   1.084       .  S
C1198      C1199   1.412       .  A
C1198      C1216   1.481       .  S
C1199      H1202   1.084       .  S
O1203      V1211   1.889       .  S
O1203      C1213   1.263       .  A
O1204      V1211   1.891       .  S
O1204      C1214   1.263       .  A
O1205      V1211   1.898       .  S
O1205      C1215   1.264       .  A
O1206      V1211   1.902       .  S
O1206      C1216   1.265       .  A
O1207      V1212   1.900       .  S
O1207      C1216   1.265       .  A
O1208      V1212   1.895       .  S
O1208      C1215   1.264       .  A
O1209      V1212   1.906       .  S
O1209      C1214   1.266       .  A
O1210      V1212   1.906       .  S
O1210      C1213   1.266       .  A
V1211      V1212   2.086       .  T
C1217      C1218   1.408       .  A
C1217      C1222   1.404       .  A
C1218      C1219   1.416       .  A
C1218      C1223   1.452       .  S
C1219      C1220   1.424       .  A
C1219      C1226   1.448       .  S
C1220      C1221   1.423       .  A
C1221      C1222   1.406       .  A
C1221      C1224   1.449       .  S
C1222      C1225   1.454       .  S
C1223      N1230   1.157       .  T
C1224      N1229   1.157       .  T
C1225      N1227   1.157       .  T
C1231      C1232   1.409       .  A
C1231      C1236   1.405       .  A
C1232      C1233   1.417       .  A
C1232      C1237   1.452       .  S
C1233      C1234   1.425       .  A
C1233      C1240   1.447       .  S
C1234      C1235   1.424       .  A
C1235      C1236   1.407       .  A
C1235      C1238   1.449       .  S
C1236      C1239   1.455       .  S
C1237      N1244   1.157       .  T
C1239      N1241   1.157       .  T
C1240      N1242   1.157       .  T
C1245      C1246   1.404       .  A
C1245      C1250   1.408       .  A
C1246      C1247   1.407       .  A
C1246      C1251   1.455       .  S
C1247      C1248   1.426       .  A
C1247      C1254   1.449       .  S
C1248      C1249   1.425       .  A
C1249      C1250   1.418       .  A
C1249      C1252   1.447       .  S
C1250      C1253   1.451       .  S
C1251      N1258   1.157       .  T
C1252      N1257   1.157       .  T
C1253      N1255   1.157       .  T
C1259      C1260   1.423       .  A
C1259      C1264   1.423       .  A
C1260      C1261   1.418       .  A
C1260      C1265   1.448       .  S
C1261      C1262   1.411       .  A
C1261      C1268   1.451       .  S
C1262      C1263   1.407       .  A
C1263      C1264   1.408       .  A
C1263      C1266   1.455       .  S
C1264      C1267   1.450       .  S
C1265      N1272   1.157   1_556  T
C1266      N1271   1.157       .  T
C1268      N1270   1.157       .  T
C1273      C1274   1.408       .  A
C1273      C1278   1.406       .  A
C1274      C1275   1.415       .  A
C1274      C1279   1.453       .  S
C1275      C1276   1.425       .  A
C1275      C1282   1.449       .  S
C1276      C1277   1.428       .  A
C1277      C1278   1.416       .  A
C1277      C1280   1.441       .  S
C1278      C1281   1.456       .  S
C1279      N1286   1.157       .  T
C1280      N1285   1.157       .  T
C1281      N1283   1.157       .  T
C1287      C1288   1.406       .  A
C1287      C1292   1.406       .  A
C1288      C1289   1.410       .  A
C1288      C1293   1.451       .  S
C1289      C1290   1.415       .  A
C1289      C1296   1.445       .  S
C1290      C1291   1.419       .  A
C1291      C1292   1.409       .  A
C1291      C1294   1.453       .  S
C1292      C1295   1.452       .  S
C1293      N1300   1.157       .  T
C1294      N1299   1.158       .  T
C1295      N1297   1.157       .  T
C1296      N1298   1.157   1_556  T
C1301      C1302   1.414       .  A
C1301      C1306   1.408       .  A
C1302      C1303   1.412       .  A
C1302      C1307   1.449       .  S
C1303      C1304   1.416       .  A
C1303      C1310   1.446       .  S
C1304      C1305   1.417       .  A
C1305      C1306   1.408       .  A
C1305      C1308   1.441       .  S
C1306      C1309   1.450       .  S
C1307      N1314   1.156       .  T
C1308      N1313   1.157       .  T
C1309      N1311   1.157       .  T
C1315      C1316   1.405       .  A
C1315      C1320   1.397       .  A
C1316      C1317   1.421       .  A
C1316      C1321   1.449       .  S
C1317      C1318   1.430       .  A
C1317      C1324   1.443       .  S
C1318      C1319   1.424       .  A
C1319      C1320   1.392       .  A
C1319      C1322   1.441       .  S
C1320      C1323   1.451       .  S
C1321      N1328   1.157       .  T
C1323      N1325   1.157       .  T
C1324      N1326   1.156       .  T
