geometry optimzed in LAMMPS
_audit_creation_date              2020-11-30 
_audit_creation_method            'lammps2cif' 
_symmetry_space_group_name_H-M    'P1' 
_symmetry_Int_Tables_number       1 
_symmetry_cell_setting            triclinic 
loop_ 
_symmetry_equiv_pos_as_xyz 
  x,y,z 
_cell_length_a                    39.92344512 
_cell_length_b                    39.841695610750925 
_cell_length_c                    39.85404696862146 
_cell_angle_alpha                 89.18537570618406 
_cell_angle_beta                  90.20260713997675 
_cell_angle_gamma                 89.98464496736206 
loop_ 
_atom_site_label 
_atom_site_type_symbol 
_atom_site_fract_x 
_atom_site_fract_y 
_atom_site_fract_z 
_atom_site_charge 
N1          N  0.99173203  0.24667603  0.30432903    -0.35800
N2          N  0.00101980  0.30059082  0.25598002    -0.56400
N3          N  0.99684429  0.25203453  0.20135090    -0.35800
N4          N  0.98788491  0.19804583  0.24995853    -0.56400
C5          C  0.98749036  0.27328077  0.32470704     0.27800
C6          C  0.98287248  0.21887785  0.32198228     0.27800
C7          C  0.00593925  0.27987924  0.18372007     0.27800
C8          C  0.00065340  0.22532486  0.18090201     0.27800
C9          C  0.00409112  0.31870462  0.28425384     0.36400
C10         C  0.00730647  0.32178779  0.23004725     0.36400
C11         C  0.98301038  0.17673606  0.27613732     0.36400
C12         C  0.98526702  0.17962884  0.22184433     0.36400
C13         C  0.97564597  0.26209982  0.35559864    -0.21100
C14         C  0.97329285  0.22775058  0.35405941    -0.21100
C15         C  0.01487225  0.27093363  0.15149459    -0.21100
C16         C  0.01207683  0.23658420  0.14987746    -0.21100
C17         C  0.01343172  0.35135480  0.27620125    -0.22100
C18         C  0.01488091  0.35345028  0.24189882    -0.22100
C19         C  0.97653622  0.14473040  0.26469877    -0.22100
C20         C  0.97719133  0.14669792  0.23034195    -0.22100
C21         C  0.99569157  0.30716303  0.31695578    -0.17500
C22         C  0.98368797  0.18555709  0.31032102    -0.17500
C23         C  0.99339528  0.19113466  0.18896723    -0.17500
C24         C  0.00694567  0.31321004  0.19573440    -0.17500
H25         H  0.96980863  0.27705515  0.37726962     0.15400
H26         H  0.96498244  0.21125975  0.37417205     0.15400
H27         H  0.02341881  0.28734842  0.13142209     0.15400
H28         H  0.01779396  0.22164851  0.12816889     0.15400
H29         H  0.01793939  0.37184072  0.29317274     0.13700
H30         H  0.02124797  0.37569755  0.22739078     0.13700
H31         H  0.97135088  0.12237860  0.27953667     0.13700
H32         H  0.97318200  0.12590023  0.21363264     0.13700
H33         H  0.00350418  0.24679746  0.28117310     0.27000
H34         H  0.98591062  0.25186522  0.22490262     0.27000
O35         O  0.99994324  0.09671862  0.05451228    -0.79300
O36         O  0.00636692  0.40787056  0.06444730    -0.80900
O37         O  0.44991592  0.00212455  0.09901057    -0.77900
O38         O  0.06319920  0.00367437  0.09221556    -0.76300
O39         O  0.10142216  0.50000656  0.04963694    -0.78100
O40         O  0.40789693  0.50035605  0.05975955    -0.79000
O41         O  0.00798062  0.45039883  0.10259130    -0.80300
O42         O  0.00199218  0.05691636  0.09619069    -0.80600
Eu43       Eu  0.00478587  0.50204740  0.06974173     2.39200
O44         O  0.03743418  0.46690299  0.03581700    -0.88100
O45         O  0.46848660  0.03407622  0.03556446    -0.91700
C46         C  0.00023662  0.08765207  0.08587157     1.03000
C47         C  0.00805678  0.41922742  0.09481933     1.02800
C48         C  0.41862020  0.00132587  0.09033443     1.02700
C49         C  0.09354489  0.00206002  0.08079591     1.00600
H50         H  0.45584680  0.45264909  0.05403788     0.30300
O51         O  0.46911752  0.46630302  0.03890172    -1.00500
H52         H  0.05187932  0.04968685  0.04571632     0.30400
O53         O  0.03735543  0.03515998  0.03300506    -1.03100
O54         O  0.99830943  0.40173853  0.45122100    -0.80300
O55         O  0.99729924  0.09295885  0.44294173    -0.79800
O56         O  0.40744994  0.44223242  0.50299577    -0.78300
O57         O  0.09638854  0.44397706  0.49609378    -0.81600
O58         O  0.09554841  0.05563019  0.49354093    -0.79500
O59         O  0.40606480  0.05467788  0.50188918    -0.78100
O60         O  0.44249606  0.49668151  0.40762958    -0.79600
O61         O  0.05181742  0.49785337  0.40295378    -0.81500
O62         O  0.40373143  0.50009493  0.44931702    -0.78300
O63         O  0.09350459  0.50221452  0.44176758    -0.81000
O64         O  0.44829019  0.40184903  0.50692985    -0.76700
O65         O  0.44625462  0.09553433  0.49971434    -0.76700
O66         O  0.05525096  0.09627758  0.49584425    -0.76400
O67         O  0.05656226  0.40299006  0.50257898    -0.79900
O68         O  0.99672538  0.44094849  0.40874672    -0.79300
O69         O  0.99561450  0.05104700  0.40407252    -0.77600
Eu70       Eu  0.00215124  0.43095455  0.50566440     2.39800
Eu71       Eu  0.00089369  0.06778672  0.49954252     2.39600
Eu72       Eu  0.43335876  0.49885291  0.50389825     2.38400
Eu73       Eu  0.06904143  0.49983531  0.49790047     2.39900
Eu74       Eu  0.99833183  0.49694818  0.43375611     2.39800
O75         O  0.03304733  0.03292596  0.46470050    -0.92000
O76         O  0.46648076  0.46363799  0.47092475    -0.90900
C77         C  0.99680541  0.41032858  0.41978614     1.03100
C78         C  0.99536749  0.08209638  0.41263766     1.01800
C79         C  0.41752688  0.41134200  0.50449626     1.01200
C80         C  0.08700090  0.41294510  0.49851571     1.03300
C81         C  0.08601029  0.08663711  0.49362634     1.02200
C82         C  0.41549511  0.08575173  0.50039270     1.01000
C83         C  0.41200457  0.49879170  0.41802234     1.01100
C84         C  0.08301052  0.50040473  0.41124488     1.03700
H85         H  0.45153842  0.04571640  0.45392257     0.31100
O86         O  0.46612815  0.03219441  0.46789207    -1.04200
H87         H  0.04724148  0.44963240  0.45332877     0.33100
O88         O  0.03398212  0.46384119  0.46760538    -1.06800
N89         N  0.24747946  0.99883457  0.30117668    -0.35800
N90         N  0.30183046  0.99912806  0.25311297    -0.56400
N91         N  0.25370306  0.99888546  0.19911838    -0.35800
N92         N  0.19916478  0.00015066  0.24720163    -0.56400
C93         C  0.27393593  0.00785639  0.32037702     0.27800
C94         C  0.21930467  0.00906534  0.31684227     0.27800
C95         C  0.28197646  0.00690651  0.18220433     0.27800
C96         C  0.22749219  0.00692112  0.17902453     0.27800
C97         C  0.31839831  0.99022059  0.28146856     0.36400
C98         C  0.32222595  0.99183042  0.22721870     0.36400
C99         C  0.17902400  0.99209112  0.27325284     0.36400
C100        C  0.18222833  0.99234153  0.21901714     0.36400
C101        C  0.26252207  0.02446365  0.34846463    -0.21100
C102        C  0.22800451  0.02529557  0.34620410    -0.21100
C103        C  0.27362841  0.02003045  0.15085465    -0.21100
C104        C  0.23917903  0.01996623  0.14881581    -0.21100
C105        C  0.34935303  0.97668814  0.27348014    -0.22100
C106        C  0.35192774  0.97811084  0.23905250    -0.22100
C107        C  0.14931091  0.97843471  0.26155484    -0.22100
C108        C  0.15114931  0.97910007  0.22705501    -0.22100
C109        C  0.30768752  0.99883901  0.31409286    -0.17500
C110        C  0.18620584  0.00055348  0.30686922    -0.17500
C111        C  0.19356945  0.99993225  0.18631485    -0.17500
C112        C  0.31493061  0.99965299  0.19330428    -0.17500
H113        H  0.27744904  0.03429702  0.36880094     0.15400
H114        H  0.21119261  0.03578428  0.36454673     0.15400
H115        H  0.29059974  0.02808976  0.13121364     0.15400
H116        H  0.22444237  0.02797416  0.12730214     0.15400
H117        H  0.36856935  0.96792053  0.29070838     0.13700
H118        H  0.37329174  0.97032990  0.22443836     0.13700
H119        H  0.12811378  0.96997155  0.27625454     0.13700
H120        H  0.13176501  0.97114054  0.20985914     0.13700
H121        H  0.24843120  0.98267364  0.28088115     0.27000
H122        H  0.25236972  0.98484143  0.22127508     0.27000
N123        N  0.25263541  0.30130844  0.49501953    -0.35800
N124        N  0.30299277  0.24859365  0.49499213    -0.56400
N125        N  0.25016162  0.19861439  0.49221541    -0.35800
N126        N  0.19970507  0.25114255  0.48988077    -0.56400
C127        C  0.28054176  0.32047040  0.49258642     0.27800
C128        C  0.22585006  0.32182079  0.49104150     0.27800
C129        C  0.27738752  0.17982984  0.48506996     0.27800
C130        C  0.22291275  0.18149202  0.48166323     0.27800
C131        C  0.32331921  0.27502427  0.50075413     0.36400
C132        C  0.32127239  0.22065808  0.50134068     0.36400
C133        C  0.18068923  0.27841687  0.49606810     0.36400
C134        C  0.17983141  0.22404173  0.49482556     0.36400
C135        C  0.27125811  0.35375631  0.48761567    -0.21100
C136        C  0.23686488  0.35459638  0.48665129    -0.21100
C137        C  0.26739519  0.15045146  0.46974955    -0.21100
C138        C  0.23297518  0.15155655  0.46746960    -0.21100
C139        C  0.35494382  0.26368914  0.51002028    -0.22100
C140        C  0.35335285  0.22937179  0.51136728    -0.22100
C141        C  0.14833019  0.26848629  0.50409931    -0.22100
C142        C  0.14809056  0.23412960  0.50431035    -0.22100
C143        C  0.31403743  0.30924253  0.49705259    -0.17500
C144        C  0.19176425  0.31220005  0.49374534    -0.17500
C145        C  0.18923268  0.19060051  0.48794236    -0.17500
C146        C  0.31074153  0.18762761  0.49412576    -0.17500
H147        H  0.28745344  0.37546261  0.48571379     0.15400
H148        H  0.22176398  0.37702081  0.48383687     0.15400
H149        H  0.28323418  0.13013156  0.46152535     0.15400
H150        H  0.21707657  0.13213906  0.45734482     0.15400
H151        H  0.37701969  0.27841358  0.51537898     0.13700
H152        H  0.37394879  0.21277182  0.51772438     0.13700
H153        H  0.12694773  0.28412985  0.50950714     0.13700
H154        H  0.12663009  0.21848104  0.50991753     0.13700
H155        H  0.25175725  0.27632922  0.50233152     0.27000
H156        H  0.24991763  0.21952349  0.50754231     0.27000
C157        C  0.39185957  0.38457588  0.50237186    -0.04500
C158        C  0.38383328  0.36475426  0.03076572    -0.01600
C159        C  0.35699592  0.34191790  0.02962134     0.03300
C160        C  0.34108090  0.33520768  0.49875803    -0.04500
C161        C  0.35158742  0.35248980  0.46939519    -0.01600
C162        C  0.37632734  0.37768157  0.47139602     0.03300
C163        C  0.40511817  0.36523287  0.06008352     0.38000
C164        C  0.33711683  0.34415633  0.43713929     0.38000
C165        C  0.38757262  0.39485474  0.44121841     0.36400
C166        C  0.34629338  0.32469031  0.06008592     0.36400
N167        N  0.39676968  0.40847732  0.41716041    -0.38400
N168        N  0.33781676  0.31076073  0.08427812    -0.38400
N169        N  0.32558544  0.33751148  0.41139495    -0.37900
N170        N  0.42274133  0.36375365  0.08307688    -0.37900
C171        C  0.38892924  0.11212044  0.49913158    -0.04500
C172        C  0.36107515  0.11000672  0.02093004    -0.01600
C173        C  0.33558179  0.13455875  0.01929699     0.03300
C174        C  0.33655564  0.16024952  0.49451872    -0.04500
C175        C  0.36392262  0.16186329  0.47221829    -0.01600
C176        C  0.39114448  0.13966572  0.47631190     0.03300
C177        C  0.36001056  0.08426568  0.04704544     0.38000
C178        C  0.36441923  0.18709025  0.44554274     0.38000
C179        C  0.42211275  0.14717853  0.45887681     0.36400
C180        C  0.30916161  0.13425239  0.04415022     0.36400
N181        N  0.44697822  0.15443999  0.44582328    -0.38400
N182        N  0.28836853  0.13406689  0.06428898    -0.38400
N183        N  0.36459650  0.20732791  0.42442053    -0.37900
N184        N  0.35927679  0.06389207  0.06801520    -0.37900
C185        C  0.16581637  0.33924817  0.49487609    -0.04500
C186        C  0.14878663  0.34543271  0.02510536    -0.01600
C187        C  0.12051082  0.36639001  0.02489065     0.03300
C188        C  0.11321374  0.38669695  0.49659598    -0.04500
C189        C  0.13025732  0.38088141  0.46626897    -0.01600
C190        C  0.15578935  0.35637296  0.46516583     0.03300
C191        C  0.15932813  0.32898897  0.05611970     0.38000
C192        C  0.11843931  0.39674656  0.43547157     0.38000
C193        C  0.17090339  0.34789247  0.43336423     0.36400
C194        C  0.09621535  0.36280316  0.05143497     0.36400
N195        N  0.18282193  0.34095315  0.40796193    -0.38400
N196        N  0.07580830  0.35762176  0.07130806    -0.38400
N197        N  0.10827647  0.40864437  0.41080610    -0.37900
N198        N  0.16773239  0.31594867  0.08088047    -0.37900
C199        C  0.11246118  0.11308805  0.49154199    -0.04500
C200        C  0.14195142  0.11010832  0.01118853    -0.01600
C201        C  0.16576815  0.13620254  0.01122989     0.03300
C202        C  0.16290136  0.16353706  0.48837970    -0.04500
C203        C  0.13450190  0.16544599  0.46706762    -0.01600
C204        C  0.10836148  0.14177515  0.47046160     0.03300
C205        C  0.14780531  0.08061837  0.03215578     0.38000
C206        C  0.13181274  0.19202934  0.44189243     0.38000
C207        C  0.07699483  0.14788570  0.45296594     0.36400
C208        C  0.19253302  0.13550110  0.03593946     0.36400
N209        N  0.05173609  0.15375919  0.43981785    -0.38400
N210        N  0.21361204  0.13502006  0.05592130    -0.38400
N211        N  0.12943270  0.21332055  0.42196243    -0.37900
N212        N  0.15321018  0.05693658  0.04841113    -0.37900
C213        C  0.33331216  0.00043359  0.34192313    -0.04500
C214        C  0.32968679  0.48113104  0.37172890    -0.01600
C215        C  0.35362503  0.48340105  0.39780394     0.03300
C216        C  0.38459420  0.49996023  0.39208927    -0.04500
C217        C  0.38906811  0.01745010  0.36111135    -0.01600
C218        C  0.36234601  0.02036885  0.33799852     0.03300
C219        C  0.30255592  0.45722449  0.37505188     0.38000
C220        C  0.42114468  0.03193711  0.35198375     0.38000
C221        C  0.36478294  0.04410173  0.31013316     0.36400
C222        C  0.34612583  0.46815826  0.43020017     0.36400
N223        N  0.36661141  0.06316763  0.28804765    -0.38400
N224        N  0.33971676  0.45661911  0.45621253    -0.38400
N225        N  0.44670803  0.04286394  0.34366990    -0.37900
N226        N  0.28168174  0.43731778  0.37808013    -0.37900
C227        C  0.15873213  0.00008691  0.33280130    -0.04500
C228        C  0.12866734  0.01856832  0.32825411    -0.01600
C229        C  0.10280019  0.01629727  0.35239243     0.03300
C230        C  0.10893651  0.50064104  0.38407222    -0.04500
C231        C  0.14039726  0.48482205  0.38952625    -0.01600
C232        C  0.16304150  0.48135951  0.36285463     0.03300
C233        C  0.12428761  0.04036119  0.29907937     0.38000
C234        C  0.15041579  0.47232467  0.42246797     0.38000
C235        C  0.18980043  0.45692021  0.36592859     0.36400
C236        C  0.07019261  0.03037488  0.34426534     0.36400
N237        N  0.21038076  0.43662208  0.36847859    -0.38400
N238        N  0.04408715  0.04101712  0.33717576    -0.38400
N239        N  0.15909721  0.46303105  0.44874381    -0.37900
N240        N  0.12060835  0.05773644  0.27583499    -0.37900
C241        C  0.12149257  0.00284296  0.10539494    -0.04500
C242        C  0.12575634  0.03100918  0.12593681    -0.01600
C243        C  0.14850303  0.02972802  0.15304775     0.03300
C244        C  0.16879001  0.00106007  0.15822108    -0.04500
C245        C  0.16729953  0.47450899  0.13521999    -0.01600
C246        C  0.14419896  0.47575360  0.10838962     0.03300
C247        C  0.11001112  0.06251207  0.11631338     0.38000
C248        C  0.18945053  0.44586073  0.13942366     0.38000
C249        C  0.14485399  0.44988575  0.08323307     0.36400
C250        C  0.15137062  0.05804987  0.17530850     0.36400
N251        N  0.14598009  0.42933023  0.06307535    -0.38400
N252        N  0.15348926  0.08060964  0.19316203    -0.38400
N253        N  0.20724546  0.42314552  0.14300193    -0.37900
N254        N  0.09832390  0.08775586  0.10755526    -0.38900
C255        C  0.39275066  0.00072683  0.11734487    -0.04500
C256        C  0.36703002  0.47621609  0.11701791    -0.01600
C257        C  0.34301948  0.47483692  0.14286059     0.03300
C258        C  0.34260717  0.99952441  0.16789602    -0.04500
C259        C  0.36736683  0.02487783  0.16757557    -0.01600
C260        C  0.39288481  0.02493039  0.14300522     0.03300
C261        C  0.36504776  0.45213544  0.09015525     0.38000
C262        C  0.36563116  0.05182245  0.19158373     0.38000
C263        C  0.41816912  0.05102757  0.14322325     0.36400
C264        C  0.31868170  0.44779035  0.14383641     0.36400
N265        N  0.43822708  0.07196127  0.14368090    -0.38400
N266        N  0.29933921  0.42617422  0.14475116    -0.38400
N267        N  0.36401103  0.07356192  0.21045453    -0.37900
N268        N  0.36289503  0.43305033  0.06866603    -0.37900
C269        C  0.99217917  0.10731276  0.38550203    -0.04500
C270        C  0.02112835  0.12054284  0.37017309    -0.01600
C271        C  0.01815432  0.14619595  0.34571706     0.03300
C272        C  0.98615792  0.15795989  0.33582890    -0.04500
C273        C  0.45714245  0.14359161  0.35009612    -0.01600
C274        C  0.46015401  0.11842439  0.37509943     0.03300
C275        C  0.05394087  0.10776103  0.37964074     0.38000
C276        C  0.42429294  0.15485750  0.33917691     0.38000
C277        C  0.43030336  0.10408684  0.39025011     0.36400
C278        C  0.04805563  0.16075794  0.33090755     0.36400
N279        N  0.40646115  0.09278504  0.40238335    -0.38400
N280        N  0.07193816  0.17239226  0.31918998    -0.38400
N281        N  0.39800476  0.16371295  0.33051498    -0.37900
N282        N  0.08005757  0.09754712  0.38730759    -0.37900
C283        C  0.99460615  0.33246145  0.34459084    -0.04500
C284        C  0.01803960  0.33092799  0.37118894    -0.01600
C285        C  0.01747361  0.35519987  0.39668985     0.03300
C286        C  0.99548167  0.38310382  0.39429274    -0.04500
C287        C  0.47287307  0.38516616  0.36677021    -0.01600
C288        C  0.47108233  0.35894273  0.34340290     0.03300
C289        C  0.04326767  0.30466974  0.37185164     0.38000
C290        C  0.45172560  0.41441468  0.36156726     0.38000
C291        C  0.44515950  0.35944428  0.31774016     0.36400
C292        C  0.04031322  0.35162003  0.42484290     0.36400
N293        N  0.42446029  0.35993942  0.29733469    -0.38400
N294        N  0.05822374  0.34801914  0.44747921    -0.38400
N295        N  0.43502658  0.43765598  0.35626527    -0.37900
N296        N  0.06327935  0.28364279  0.37208622    -0.37900
C297        C  0.00792551  0.34142845  0.17064440    -0.04500
C298        C  0.03869579  0.35424932  0.15874203    -0.01600
C299        C  0.03894415  0.38174704  0.13602874     0.03300
C300        C  0.00860082  0.39470291  0.12317459    -0.04500
C301        C  0.47845978  0.38532129  0.13886087    -0.01600
C302        C  0.47782124  0.35788507  0.16152039     0.03300
C303        C  0.07000027  0.33949511  0.17012587     0.38000
C304        C  0.44907683  0.40626444  0.13460688     0.38000
C305        C  0.44619744  0.34684081  0.17565930     0.36400
C306        C  0.06995670  0.39920509  0.12927743     0.36400
N307        N  0.42085169  0.33813204  0.18676175    -0.38400
N308        N  0.09493443  0.41318901  0.12487739    -0.38400
N309        N  0.42575626  0.42330351  0.13187933    -0.37900
N310        N  0.09511601  0.32778829  0.17894670    -0.37900
C311        C  0.99589578  0.16534791  0.16165925    -0.04500
C312        C  0.01944813  0.13890682  0.16427032    -0.01600
C313        C  0.01828107  0.11198887  0.14168861     0.03300
C314        C  0.99842340  0.11429804  0.11212323    -0.04500
C315        C  0.47580497  0.14160867  0.10870604    -0.01600
C316        C  0.47332515  0.16583997  0.13423818     0.03300
C317        C  0.04471642  0.13897626  0.19057478     0.38000
C318        C  0.45308920  0.14362247  0.08029950     0.38000
C319        C  0.44673082  0.19065040  0.13289870     0.36400
C320        C  0.03536821  0.08105829  0.15089120     0.36400
N321        N  0.42538808  0.21030676  0.13201745    -0.38400
N322        N  0.04788480  0.05609981  0.15930459    -0.38400
N323        N  0.43476050  0.14568725  0.05782002    -0.37900
N324        N  0.06502935  0.13887223  0.21136888    -0.37900
N325        N  0.99173206  0.24667603  0.80432900    -0.35800
N326        N  0.00101980  0.30059083  0.75598005    -0.56400
N327        N  0.99684434  0.25203455  0.70135090    -0.35800
N328        N  0.98788496  0.19804583  0.74995845    -0.56400
C329        C  0.98749035  0.27328075  0.82470712     0.27800
C330        C  0.98287246  0.21887783  0.82198225     0.27800
C331        C  0.00593929  0.27987928  0.68372007     0.27800
C332        C  0.00065348  0.22532489  0.68090198     0.27800
C333        C  0.00409105  0.31870463  0.78425388     0.36400
C334        C  0.00730649  0.32178781  0.73004730     0.36400
C335        C  0.98301036  0.17673604  0.77613724     0.36400
C336        C  0.98526711  0.17962885  0.72184424     0.36400
C337        C  0.97564597  0.26209983  0.85559883    -0.21100
C338        C  0.97329287  0.22775050  0.85405947    -0.21100
C339        C  0.01487235  0.27093370  0.65149459    -0.21100
C340        C  0.01207691  0.23658427  0.64987748    -0.21100
C341        C  0.01343167  0.35135481  0.77620132    -0.22100
C342        C  0.01488095  0.35345028  0.74189892    -0.22100
C343        C  0.97653628  0.14473033  0.76469870    -0.22100
C344        C  0.97719145  0.14669791  0.73034186    -0.22100
C345        C  0.99569153  0.30716302  0.81695580    -0.17500
C346        C  0.98368793  0.18555708  0.81032093    -0.17500
C347        C  0.99339533  0.19113468  0.68896715    -0.17500
C348        C  0.00694566  0.31321007  0.69573445    -0.17500
H349        H  0.96980867  0.27705516  0.87726980     0.15400
H350        H  0.96498252  0.21125953  0.87417202     0.15400
H351        H  0.02341895  0.28734847  0.63142210     0.15400
H352        H  0.01779399  0.22164859  0.62816889     0.15400
H353        H  0.01793935  0.37184071  0.79317283     0.13700
H354        H  0.02124814  0.37569754  0.72739093     0.13700
H355        H  0.97135098  0.12237853  0.77953659     0.13700
H356        H  0.97318215  0.12590025  0.71363251     0.13700
H357        H  0.00350422  0.24679749  0.78117308     0.27000
H358        H  0.98591068  0.25186520  0.72490260     0.27000
O359        O  0.99994321  0.09671859  0.55451221    -0.79300
O360        O  0.00636701  0.40787063  0.56444730    -0.80900
O361        O  0.44991586  0.00212456  0.59901056    -0.77900
O362        O  0.06319916  0.00367444  0.59221557    -0.76300
O363        O  0.10142214  0.50000666  0.54963692    -0.78100
O364        O  0.40789680  0.50035612  0.55975956    -0.79000
O365        O  0.00798071  0.45039887  0.60259133    -0.80300
O366        O  0.00199211  0.05691640  0.59619069    -0.80600
Eu367      Eu  0.00478580  0.50204741  0.56974167     2.39200
O368        O  0.03743408  0.46690305  0.53581690    -0.88100
O369        O  0.46848656  0.03407620  0.53556446    -0.91700
C370        C  0.00023660  0.08765209  0.58587152     1.03000
C371        C  0.00805686  0.41922745  0.59481934     1.02800
C372        C  0.41862015  0.00132588  0.59033439     1.02700
C373        C  0.09354485  0.00206013  0.58079588     1.00600
H374        H  0.45584689  0.45264907  0.55403781     0.30300
O375        O  0.46911758  0.46630302  0.53890163    -1.00500
H376        H  0.05187922  0.04968684  0.54571636     0.30400
O377        O  0.03735540  0.03515994  0.53300507    -1.03100
O378        O  0.99830955  0.40173855  0.95122098    -0.80300
O379        O  0.99729909  0.09295886  0.94294177    -0.79800
O380        O  0.40745000  0.44223241  0.00299567    -0.78300
O381        O  0.09638860  0.44397702  0.99609372    -0.81600
O382        O  0.09554847  0.05563018  0.99354103    -0.79500
O383        O  0.40606487  0.05467794  0.00188909    -0.78100
O384        O  0.44249604  0.49668152  0.90762951    -0.79600
O385        O  0.05181739  0.49785354  0.90295375    -0.81500
O386        O  0.40373144  0.50009496  0.94931696    -0.78300
O387        O  0.09350456  0.50221451  0.94176756    -0.81000
O388        O  0.44829019  0.40184899  0.00692998    -0.76700
O389        O  0.44625465  0.09553443  0.99971449    -0.76700
O390        O  0.05525101  0.09627756  0.99584436    -0.76400
O391        O  0.05656229  0.40299005  0.00257893    -0.79900
O392        O  0.99672532  0.44094847  0.90874667    -0.79300
O393        O  0.99561458  0.05104701  0.90407255    -0.77600
Eu394      Eu  0.00215130  0.43095452  0.00566445     2.39800
Eu395      Eu  0.00089369  0.06778678  0.99954256     2.39600
Eu396      Eu  0.43335881  0.49885291  0.00389822     2.38400
Eu397      Eu  0.06904146  0.49983525  0.99790047     2.39900
Eu398      Eu  0.99833188  0.49694819  0.93375610     2.39800
O399        O  0.03304728  0.03292601  0.96470051    -0.92000
O400        O  0.46648082  0.46363799  0.97092478    -0.90900
C401        C  0.99680542  0.41032858  0.91978612     1.03100
C402        C  0.99536742  0.08209639  0.91263768     1.01800
C403        C  0.41752692  0.41134198  0.00449627     1.01200
C404        C  0.08700094  0.41294507  0.99851566     1.03300
C405        C  0.08601033  0.08663710  0.99362642     1.02200
C406        C  0.41549514  0.08575179  0.00039272     1.01000
C407        C  0.41200457  0.49879171  0.91802228     1.01100
C408        C  0.08301049  0.50040480  0.91124486     1.03700
H409        H  0.45153845  0.04571645  0.95392243     0.31100
O410        O  0.46612821  0.03219444  0.96789206    -1.04200
H411        H  0.04724153  0.44963237  0.95332881     0.33100
O412        O  0.03398214  0.46384115  0.96760539    -1.06800
N413        N  0.24747942  0.99883470  0.80117653    -0.35800
N414        N  0.30183043  0.99912827  0.75311307    -0.56400
N415        N  0.25370300  0.99888559  0.69911848    -0.35800
N416        N  0.19916480  0.00015095  0.74720160    -0.56400
C417        C  0.27393590  0.00785649  0.82037704     0.27800
C418        C  0.21930468  0.00906547  0.81684221     0.27800
C419        C  0.28197646  0.00690668  0.68220434     0.27800
C420        C  0.22749220  0.00692134  0.67902458     0.27800
C421        C  0.31839818  0.99022061  0.78146863     0.36400
C422        C  0.32222588  0.99183054  0.72721879     0.36400
C423        C  0.17902401  0.99209140  0.77325278     0.36400
C424        C  0.18222836  0.99234175  0.71901709     0.36400
C425        C  0.26252207  0.02446371  0.84846469    -0.21100
C426        C  0.22800453  0.02529556  0.84620404    -0.21100
C427        C  0.27362851  0.02003070  0.65085464    -0.21100
C428        C  0.23917911  0.01996645  0.64881596    -0.21100
C429        C  0.34935278  0.97668801  0.77348018    -0.22100
C430        C  0.35192756  0.97811074  0.73905257    -0.22100
C431        C  0.14931099  0.97843501  0.76155471    -0.22100
C432        C  0.15114936  0.97910031  0.72705492    -0.22100
C433        C  0.30768746  0.99883902  0.81409291    -0.17500
C434        C  0.18620584  0.00055365  0.80686918    -0.17500
C435        C  0.19356947  0.99993243  0.68631484    -0.17500
C436        C  0.31493057  0.99965309  0.69330437    -0.17500
H437        H  0.27744896  0.03429705  0.86880105     0.15400
H438        H  0.21119254  0.03578419  0.86454667     0.15400
H439        H  0.29059976  0.02809005  0.63121361     0.15400
H440        H  0.22444236  0.02797436  0.62730232     0.15400
H441        H  0.36856908  0.96792031  0.79070842     0.13700
H442        H  0.37329154  0.97032969  0.72443848     0.13700
H443        H  0.12811383  0.96997184  0.77625438     0.13700
H444        H  0.13176506  0.97114072  0.70985910     0.13700
H445        H  0.24843110  0.98267385  0.78088100     0.27000
H446        H  0.25236960  0.98484152  0.72127509     0.27000
N447        N  0.25263543  0.30130843  0.99501956    -0.35800
N448        N  0.30299279  0.24859367  0.99499209    -0.56400
N449        N  0.25016161  0.19861449  0.99221545    -0.35800
N450        N  0.19970498  0.25114257  0.98988068    -0.56400
C451        C  0.28054175  0.32047040  0.99258639     0.27800
C452        C  0.22585005  0.32182078  0.99104149     0.27800
C453        C  0.27738751  0.17982984  0.98507003     0.27800
C454        C  0.22291274  0.18149207  0.98166332     0.27800
C455        C  0.32331918  0.27502429  0.00075418     0.36400
C456        C  0.32127241  0.22065809  0.00134074     0.36400
C457        C  0.18068914  0.27841690  0.99606798     0.36400
C458        C  0.17983130  0.22404176  0.99482554     0.36400
C459        C  0.27125806  0.35375631  0.98761560    -0.21100
C460        C  0.23686480  0.35459642  0.98665130    -0.21100
C461        C  0.26739520  0.15045141  0.96974967    -0.21100
C462        C  0.23297518  0.15155660  0.96746976    -0.21100
C463        C  0.35494377  0.26368917  0.01002041    -0.22100
C464        C  0.35335289  0.22937179  0.01136744    -0.22100
C465        C  0.14833003  0.26848639  0.00409921    -0.22100
C466        C  0.14809042  0.23412965  0.00431033    -0.22100
C467        C  0.31403743  0.30924256  0.99705258    -0.17500
C468        C  0.19176424  0.31220004  0.99374525    -0.17500
C469        C  0.18923264  0.19060053  0.98794242    -0.17500
C470        C  0.31074153  0.18762763  0.99412587    -0.17500
H471        H  0.28745340  0.37546261  0.98571369     0.15400
H472        H  0.22176386  0.37702082  0.98383697     0.15400
H473        H  0.28323414  0.13013146  0.96152548     0.15400
H474        H  0.21707649  0.13213912  0.95734501     0.15400
H475        H  0.37701959  0.27841369  0.01537907     0.13700
H476        H  0.37394886  0.21277185  0.01772457     0.13700
H477        H  0.12694759  0.28413001  0.00950698     0.13700
H478        H  0.12662997  0.21848108  0.00991758     0.13700
H479        H  0.25175729  0.27632924  0.00233165     0.27000
H480        H  0.24991764  0.21952362  0.00754226     0.27000
C481        C  0.39185960  0.38457587  0.00237183    -0.04500
C482        C  0.38383324  0.36475430  0.53076578    -0.01600
C483        C  0.35699592  0.34191786  0.52962139     0.03300
C484        C  0.34108091  0.33520771  0.99875798    -0.04500
C485        C  0.35158741  0.35248984  0.96939514    -0.01600
C486        C  0.37632733  0.37768163  0.97139600     0.03300
C487        C  0.40511808  0.36523306  0.56008363     0.38000
C488        C  0.33711677  0.34415633  0.93713926     0.38000
C489        C  0.38757254  0.39485487  0.94121841     0.36400
C490        C  0.34629341  0.32469022  0.56008596     0.36400
N491        N  0.39676954  0.40847739  0.91716035    -0.38400
N492        N  0.33781670  0.31076071  0.58427817    -0.38400
N493        N  0.32558529  0.33751127  0.91139501    -0.37900
N494        N  0.42274120  0.36375395  0.58307703    -0.37900
C495        C  0.38892924  0.11212046  0.99913160    -0.04500
C496        C  0.36107513  0.11000673  0.52093003    -0.01600
C497        C  0.33558178  0.13455877  0.51929695     0.03300
C498        C  0.33655565  0.16024956  0.99451883    -0.04500
C499        C  0.36392262  0.16186337  0.97221841    -0.01600
C500        C  0.39114448  0.13966577  0.97631196     0.03300
C501        C  0.36001051  0.08426564  0.54704539     0.38000
C502        C  0.36441917  0.18709029  0.94554280     0.38000
C503        C  0.42211270  0.14717856  0.95887683     0.36400
C504        C  0.30916161  0.13425250  0.54415021     0.36400
N505        N  0.44697811  0.15444001  0.94582320    -0.38400
N506        N  0.28836854  0.13406712  0.56428898    -0.38400
N507        N  0.36459636  0.20732786  0.92442052    -0.37900
N508        N  0.35927687  0.06389191  0.56801504    -0.37900
C509        C  0.16581636  0.33924818  0.99487600    -0.04500
C510        C  0.14878667  0.34543276  0.52510547    -0.01600
C511        C  0.12051086  0.36639008  0.52489073     0.03300
C512        C  0.11321371  0.38669691  0.99659591    -0.04500
C513        C  0.13025729  0.38088139  0.96626889    -0.01600
C514        C  0.15578930  0.35637294  0.96516575     0.03300
C515        C  0.15932814  0.32898901  0.55611983     0.38000
C516        C  0.11843928  0.39674652  0.93547148     0.38000
C517        C  0.17090336  0.34789247  0.93336417     0.36400
C518        C  0.09621530  0.36280316  0.55143495     0.36400
N519        N  0.18282205  0.34095315  0.90796195    -0.38400
N520        N  0.07580815  0.35762176  0.57130794    -0.38400
N521        N  0.10827638  0.40864420  0.91080597    -0.37900
N522        N  0.16773230  0.31594868  0.58088062    -0.37900
C523        C  0.11246120  0.11308803  0.99154200    -0.04500
C524        C  0.14195145  0.11010830  0.51118846    -0.01600
C525        C  0.16576818  0.13620253  0.51122986     0.03300
C526        C  0.16290135  0.16353706  0.98837970    -0.04500
C527        C  0.13450193  0.16544596  0.96706753    -0.01600
C528        C  0.10836154  0.14177507  0.97046150     0.03300
C529        C  0.14780539  0.08061834  0.53215567     0.38000
C530        C  0.13181276  0.19202934  0.94189235     0.38000
C531        C  0.07699487  0.14788561  0.95296589     0.36400
C532        C  0.19253310  0.13550109  0.53593937     0.36400
N533        N  0.05173609  0.15375918  0.93981790    -0.38400
N534        N  0.21361216  0.13502008  0.55592117    -0.38400
N535        N  0.12943278  0.21332056  0.92196234    -0.37900
N536        N  0.15321031  0.05693657  0.54841103    -0.37900
C537        C  0.33331212  0.00043357  0.84192316    -0.04500
C538        C  0.32968673  0.48113116  0.87172896    -0.01600
C539        C  0.35362501  0.48340112  0.89780399     0.03300
C540        C  0.38459419  0.49996021  0.89208924    -0.04500
C541        C  0.38906809  0.01745007  0.86111135    -0.01600
C542        C  0.36234605  0.02036870  0.83799846     0.03300
C543        C  0.30255586  0.45722462  0.87505193     0.38000
C544        C  0.42114467  0.03193704  0.85198371     0.38000
C545        C  0.36478303  0.04410156  0.81013310     0.36400
C546        C  0.34612586  0.46815829  0.93020023     0.36400
N547        N  0.36661154  0.06316762  0.78804772    -0.38400
N548        N  0.33971689  0.45661914  0.95621262    -0.38400
N549        N  0.44670803  0.04286378  0.84366976    -0.37900
N550        N  0.28168162  0.43731799  0.87808023    -0.37900
C551        C  0.15873217  0.00008705  0.83280131    -0.04500
C552        C  0.12866734  0.01856838  0.82825409    -0.01600
C553        C  0.10280017  0.01629728  0.85239240     0.03300
C554        C  0.10893645  0.50064105  0.88407220    -0.04500
C555        C  0.14039720  0.48482205  0.88952623    -0.01600
C556        C  0.16304143  0.48135950  0.86285460     0.03300
C557        C  0.12428755  0.04036121  0.79907935     0.38000
C558        C  0.15041570  0.47232461  0.92246796     0.38000
C559        C  0.18980036  0.45692021  0.86592852     0.36400
C560        C  0.07019257  0.03037487  0.84426532     0.36400
N561        N  0.21038077  0.43662216  0.86847846    -0.38400
N562        N  0.04408707  0.04101711  0.83717586    -0.38400
N563        N  0.15909705  0.46303090  0.94874379    -0.37900
N564        N  0.12060820  0.05773650  0.77583502    -0.37900
C565        C  0.12149259  0.00284313  0.60539488    -0.04500
C566        C  0.12575642  0.03100936  0.62593669    -0.01600
C567        C  0.14850301  0.02972816  0.65304771     0.03300
C568        C  0.16879002  0.00106023  0.65822104    -0.04500
C569        C  0.16729942  0.47450908  0.63522001    -0.01600
C570        C  0.14419885  0.47575372  0.60838966     0.03300
C571        C  0.11001118  0.06251224  0.61631326     0.38000
C572        C  0.18945047  0.44586084  0.63942363     0.38000
C573        C  0.14485384  0.44988582  0.58323315     0.36400
C574        C  0.15137053  0.05805000  0.67530846     0.36400
N575        N  0.14597996  0.42933024  0.56307549    -0.38400
N576        N  0.15348912  0.08060984  0.69316189    -0.38400
N577        N  0.20724556  0.42314575  0.64300181    -0.37900
N578        N  0.09832380  0.08775594  0.60755513    -0.38900
C579        C  0.39275057  0.00072686  0.61734484    -0.04500
C580        C  0.36703000  0.47621613  0.61701795    -0.01600
C581        C  0.34301941  0.47483700  0.64286059     0.03300
C582        C  0.34260713  0.99952443  0.66789610    -0.04500
C583        C  0.36736676  0.02487790  0.66757555    -0.01600
C584        C  0.39288472  0.02493040  0.64300519     0.03300
C585        C  0.36504777  0.45213543  0.59015534     0.38000
C586        C  0.36563104  0.05182263  0.69158360     0.38000
C587        C  0.41816898  0.05102760  0.64322310     0.36400
C588        C  0.31868168  0.44779039  0.64383646     0.36400
N589        N  0.43822684  0.07196140  0.64368056    -0.38400
N590        N  0.29933928  0.42617419  0.64475131    -0.38400
N591        N  0.36401090  0.07356215  0.71045436    -0.37900
N592        N  0.36289495  0.43305031  0.56866615    -0.37900
C593        C  0.99217909  0.10731275  0.88550203    -0.04500
C594        C  0.02112825  0.12054284  0.87017311    -0.01600
C595        C  0.01815426  0.14619589  0.84571699     0.03300
C596        C  0.98615787  0.15795985  0.83582882    -0.04500
C597        C  0.45714246  0.14359157  0.85009602    -0.01600
C598        C  0.46015400  0.11842432  0.87509931     0.03300
C599        C  0.05394076  0.10776102  0.87964072     0.38000
C600        C  0.42429296  0.15485750  0.83917681     0.38000
C601        C  0.43030334  0.10408680  0.89024999     0.36400
C602        C  0.04805563  0.16075783  0.83090751     0.36400
N603        N  0.40646115  0.09278503  0.90238329    -0.38400
N604        N  0.07193822  0.17239219  0.81919011    -0.38400
N605        N  0.39800479  0.16371299  0.83051484    -0.37900
N606        N  0.08005749  0.09754711  0.88730749    -0.37900
C607        C  0.99460614  0.33246143  0.84459084    -0.04500
C608        C  0.01803967  0.33092804  0.87118889    -0.01600
C609        C  0.01747363  0.35519987  0.89668983     0.03300
C610        C  0.99548166  0.38310379  0.89429273    -0.04500
C611        C  0.47287307  0.38516621  0.86677013    -0.01600
C612        C  0.47108235  0.35894279  0.84340281     0.03300
C613        C  0.04326773  0.30466978  0.87185161     0.38000
C614        C  0.45172556  0.41441470  0.86156718     0.38000
C615        C  0.44515954  0.35944433  0.81774006     0.36400
C616        C  0.04031318  0.35162002  0.92484292     0.36400
N617        N  0.42446027  0.35993944  0.79733464    -0.38400
N618        N  0.05822361  0.34801915  0.94747931    -0.38400
N619        N  0.43502647  0.43765595  0.85626517    -0.37900
N620        N  0.06327932  0.28364274  0.87208632    -0.37900
C621        C  0.00792549  0.34142853  0.67064450    -0.04500
C622        C  0.03869578  0.35424938  0.65874213    -0.01600
C623        C  0.03894418  0.38174705  0.63602878     0.03300
C624        C  0.00860086  0.39470292  0.62317462    -0.04500
C625        C  0.47845985  0.38532147  0.63886104    -0.01600
C626        C  0.47782128  0.35788525  0.66152056     0.03300
C627        C  0.07000024  0.33949515  0.67012599     0.38000
C628        C  0.44907693  0.40626471  0.63460712     0.38000
C629        C  0.44619750  0.34684106  0.67565952     0.36400
C630        C  0.06995673  0.39920506  0.62927739     0.36400
N631        N  0.42085181  0.33813231  0.68676211    -0.38400
N632        N  0.09493440  0.41318905  0.62487726    -0.38400
N633        N  0.42575638  0.42330380  0.63187951    -0.37900
N634        N  0.09511594  0.32778828  0.67894686    -0.37900
C635        C  0.99589581  0.16534795  0.66165915    -0.04500
C636        C  0.01944820  0.13890687  0.66427021    -0.01600
C637        C  0.01828107  0.11198890  0.64168853     0.03300
C638        C  0.99842341  0.11429808  0.61212314    -0.04500
C639        C  0.47580493  0.14160867  0.60870598    -0.01600
C640        C  0.47332519  0.16584001  0.63423810     0.03300
C641        C  0.04471651  0.13897630  0.69057465     0.38000
C642        C  0.45308909  0.14362237  0.58029948     0.38000
C643        C  0.44673083  0.19065041  0.63289871     0.36400
C644        C  0.03536814  0.08105831  0.65089113     0.36400
N645        N  0.42538805  0.21030672  0.63201760    -0.38400
N646        N  0.04788470  0.05609980  0.65930448    -0.38400
N647        N  0.43476041  0.14568700  0.55781997    -0.37900
N648        N  0.06502946  0.13887225  0.71136874    -0.37900
N649        N  0.99174369  0.74667655  0.30432870    -0.35800
N650        N  0.00102737  0.80058958  0.25597631    -0.56400
N651        N  0.99684533  0.75203303  0.20134843    -0.35800
N652        N  0.98788904  0.69804696  0.24995698    -0.56400
C653        C  0.98750604  0.77328183  0.32470651     0.27800
C654        C  0.98288258  0.71887924  0.32198209     0.27800
C655        C  0.00593350  0.77987791  0.18371460     0.27800
C656        C  0.00064705  0.72532362  0.18089787     0.27800
C657        C  0.00410813  0.81870240  0.28424971     0.36400
C658        C  0.00731701  0.82178466  0.23004272     0.36400
C659        C  0.98301556  0.67673788  0.27613635     0.36400
C660        C  0.98527008  0.67962863  0.22184371     0.36400
C661        C  0.97566215  0.76210216  0.35559907    -0.21100
C662        C  0.97330578  0.72775272  0.35406002    -0.21100
C663        C  0.01485434  0.77093243  0.15148562    -0.21100
C664        C  0.01205877  0.73658316  0.14986929    -0.21100
C665        C  0.01345641  0.85135011  0.27619564    -0.22100
C666        C  0.01490364  0.85344459  0.24189314    -0.22100
C667        C  0.97654126  0.64473186  0.26469893    -0.22100
C668        C  0.97719562  0.64669801  0.23034250    -0.22100
C669        C  0.99571027  0.80716302  0.31695299    -0.17500
C670        C  0.98369533  0.68555876  0.31031983    -0.17500
C671        C  0.99339273  0.69113339  0.18896533    -0.17500
C672        C  0.00694531  0.81320835  0.19572966    -0.17500
H673        H  0.96982744  0.77705819  0.37727032     0.15400
H674        H  0.96499540  0.71126226  0.37417307     0.15400
H675        H  0.02339274  0.78734693  0.13140947     0.15400
H676        H  0.01776757  0.72164785  0.12815829     0.15400
H677        H  0.01797153  0.87183497  0.29316648     0.13700
H678        H  0.02127682  0.87568941  0.22738397     0.13700
H679        H  0.97135645  0.62238038  0.27953737     0.13700
H680        H  0.97318544  0.62589981  0.21363407     0.13700
H681        H  0.00351480  0.74679685  0.28117223     0.27000
H682        H  0.98592090  0.75186373  0.22490423     0.27000
O683        O  0.99993472  0.59671686  0.05450971    -0.79300
O684        O  0.00637502  0.90786758  0.06444090    -0.80900
O685        O  0.44991122  0.50211730  0.09900647    -0.77900
O686        O  0.06319505  0.50367487  0.09221469    -0.76300
O687        O  0.10142520  0.00000192  0.04963730    -0.78100
O688        O  0.40790043  0.00036532  0.05976500    -0.79000
O689        O  0.00798589  0.95039477  0.10258657    -0.80300
O690        O  0.00198321  0.55691555  0.09618922    -0.80600
Eu691      Eu  0.00478938  0.00204732  0.06974300     2.39200
O692        O  0.03743355  0.96690349  0.03581415    -0.88100
O693        O  0.46848480  0.53407434  0.03555951    -0.91700
C694        C  0.00022756  0.58765087  0.08586923     1.03000
C695        C  0.00806458  0.91922366  0.09481305     1.02800
C696        C  0.41861587  0.50131551  0.09032928     1.02700
C697        C  0.09354084  0.50206295  0.08079529     1.00600
H698        H  0.45584412  0.95264273  0.05404616     0.30300
O699        O  0.46912336  0.96630523  0.03889967    -1.00500
H700        H  0.05186484  0.54967808  0.04570603     0.30400
O701        O  0.03735598  0.53516498  0.03300716    -1.03100
O702        O  0.99830995  0.90174102  0.45121548    -0.80300
O703        O  0.99729908  0.59295521  0.44293545    -0.79800
O704        O  0.40744787  0.94223463  0.50300595    -0.78300
O705        O  0.09639169  0.94397845  0.49608938    -0.81600
O706        O  0.09554557  0.55563226  0.49354154    -0.79500
O707        O  0.40606311  0.55467793  0.50188380    -0.78100
O708        O  0.44249800  0.99667834  0.40763197    -0.79600
O709        O  0.05181715  0.99786116  0.40295408    -0.81500
O710        O  0.40373464  0.00009488  0.44932079    -0.78300
O711        O  0.09350514  0.00221874  0.44176716    -0.81000
O712        O  0.44828838  0.90185047  0.50692868    -0.76700
O713        O  0.44625256  0.59553474  0.49970795    -0.76700
O714        O  0.05524759  0.59627931  0.49584269    -0.76400
O715        O  0.05656471  0.90299171  0.50257106    -0.79900
O716        O  0.99672926  0.94095255  0.40874273    -0.79300
O717        O  0.99561906  0.55104323  0.40406618    -0.77600
Eu718      Eu  0.00215192  0.93095429  0.50566123     2.39800
Eu719      Eu  0.00089059  0.56778647  0.49953837     2.39600
Eu720      Eu  0.43336077  0.99885393  0.50390312     2.38400
Eu721      Eu  0.06904350  0.99983517  0.49790062     2.39900
Eu722      Eu  0.99833317  0.99695034  0.43375770     2.39800
O723        O  0.03304521  0.53292449  0.46469879    -0.92000
O724        O  0.46648174  0.96364126  0.47092629    -0.90900
C725        C  0.99680828  0.91033209  0.41978071     1.03100
C726        C  0.99537163  0.58209283  0.41263101     1.01800
C727        C  0.41752453  0.91134384  0.50450258     1.01200
C728        C  0.08700362  0.91294663  0.49850824     1.03300
C729        C  0.08600714  0.58663932  0.49362553     1.02200
C730        C  0.41549313  0.58575205  0.50038661     1.01000
C731        C  0.41200703  0.99878858  0.41802611     1.01100
C732        C  0.08301022  0.00041234  0.41124448     1.03700
H733        H  0.45153514  0.54571691  0.45391610     0.31100
O734        O  0.46612545  0.53219413  0.46788744    -1.04200
H735        H  0.04724429  0.94963264  0.45332463     0.33100
O736        O  0.03398225  0.96384369  0.46760577    -1.06800
N737        N  0.24748034  0.49882701  0.30117326    -0.35800
N738        N  0.30182668  0.49911369  0.25310507    -0.56400
N739        N  0.25369534  0.49887558  0.19911392    -0.35800
N740        N  0.19916217  0.50014351  0.24720193    -0.56400
C741        C  0.27393873  0.50785052  0.32036999     0.27800
C742        C  0.21930718  0.50905893  0.31684088     0.27800
C743        C  0.28196816  0.50689264  0.18219715     0.27800
C744        C  0.22748354  0.50691482  0.17902273     0.27800
C745        C  0.31839652  0.49020763  0.28145992     0.36400
C746        C  0.32221945  0.49181316  0.22720952     0.36400
C747        C  0.17902409  0.49208272  0.27325485     0.36400
C748        C  0.18222322  0.49233492  0.21901873     0.36400
C749        C  0.26252783  0.52446122  0.34845690    -0.21100
C750        C  0.22800977  0.52529144  0.34620070    -0.21100
C751        C  0.27361875  0.52001748  0.15084809    -0.21100
C752        C  0.23916904  0.51995863  0.14881289    -0.21100
C753        C  0.34934981  0.47667286  0.27347009    -0.22100
C754        C  0.35192148  0.47809257  0.23904202    -0.22100
C755        C  0.14931062  0.47842528  0.26155911    -0.22100
C756        C  0.15114550  0.47909199  0.22705904    -0.22100
C757        C  0.30768919  0.49883007  0.31408405    -0.17500
C758        C  0.18620786  0.50054623  0.30687067    -0.17500
C759        C  0.19356111  0.49992784  0.18631591    -0.17500
C760        C  0.31492245  0.49963609  0.19329518    -0.17500
H761        H  0.27745706  0.53429715  0.36879032     0.15400
H762        H  0.21119961  0.53578076  0.36454457     0.15400
H763        H  0.29058918  0.52807404  0.13120520     0.15400
H764        H  0.22443125  0.52796833  0.12730056     0.15400
H765        H  0.36856734  0.46790625  0.29069752     0.13700
H766        H  0.37328395  0.47030965  0.22442678     0.13700
H767        H  0.12811507  0.46996129  0.27626061     0.13700
H768        H  0.13175964  0.47113278  0.20986479     0.13700
H769        H  0.24842980  0.48266397  0.28087932     0.27000
H770        H  0.25236251  0.48483165  0.22127063     0.27000
N771        N  0.25263712  0.80130916  0.49501255    -0.35800
N772        N  0.30299291  0.74859331  0.49498889    -0.56400
N773        N  0.25015929  0.69861445  0.49220659    -0.35800
N774        N  0.19970539  0.75114486  0.48986847    -0.56400
C775        C  0.28054436  0.82046925  0.49257553     0.27800
C776        C  0.22585308  0.82182243  0.49103117     0.27800
C777        C  0.27738546  0.67982903  0.48506422     0.27800
C778        C  0.22291052  0.68149257  0.48165299     0.27800
C779        C  0.32331793  0.77502311  0.50075896     0.36400
C780        C  0.32126919  0.72065697  0.50134330     0.36400
C781        C  0.18069000  0.77842018  0.49605365     0.36400
C782        C  0.17982993  0.72404483  0.49481114     0.36400
C783        C  0.27126281  0.85375475  0.48759736    -0.21100
C784        C  0.23686958  0.85459700  0.48663629    -0.21100
C785        C  0.26739311  0.65044957  0.46974520    -0.21100
C786        C  0.23297305  0.65155581  0.46746201    -0.21100
C787        C  0.35493856  0.76368725  0.51003826    -0.22100
C788        C  0.35334650  0.72936937  0.51138246    -0.22100
C789        C  0.14832946  0.76849090  0.50408078    -0.22100
C790        C  0.14808865  0.73413426  0.50429275    -0.22100
C791        C  0.31403855  0.80924105  0.49705006    -0.17500
C792        C  0.19176695  0.81220310  0.49373316    -0.17500
C793        C  0.18923023  0.69060282  0.48792941    -0.17500
C794        C  0.31073930  0.68762742  0.49412225    -0.17500
H795        H  0.28745961  0.87545957  0.48568987     0.15400
H796        H  0.22176999  0.87702203  0.48381917     0.15400
H797        H  0.28323194  0.63012826  0.46152391     0.15400
H798        H  0.21707442  0.63213845  0.45733681     0.15400
H799        H  0.37701208  0.77841181  0.51540669     0.13700
H800        H  0.37393957  0.71276818  0.51774642     0.13700
H801        H  0.12694662  0.78413511  0.50948531     0.13700
H802        H  0.12662694  0.71848677  0.50989817     0.13700
H803        H  0.25175736  0.77633160  0.50233070     0.27000
H804        H  0.24991492  0.71952455  0.50753193     0.27000
C805        C  0.39185664  0.88457754  0.50237874    -0.04500
C806        C  0.38381392  0.86476934  0.03077768    -0.01600
C807        C  0.35698025  0.84192832  0.02962774     0.03300
C808        C  0.34108147  0.83520582  0.49875909    -0.04500
C809        C  0.35160184  0.85247673  0.46939517    -0.01600
C810        C  0.37634121  0.87766875  0.47139789     0.03300
C811        C  0.40507443  0.86527094  0.06011231     0.38000
C812        C  0.33714913  0.84412808  0.43713550     0.38000
C813        C  0.38759914  0.89483107  0.44121899     0.36400
C814        C  0.34626631  0.82470685  0.06009198     0.36400
N815        N  0.39680391  0.90844602  0.41715976    -0.38400
N816        N  0.33778225  0.81078163  0.08428405    -0.38400
N817        N  0.32563399  0.83746915  0.41138778    -0.37900
N818        N  0.42267361  0.86381227  0.08312502    -0.37900
C819        C  0.38892742  0.61212127  0.49912597    -0.04500
C820        C  0.36107268  0.61000661  0.02092372    -0.01600
C821        C  0.33557867  0.63455781  0.01929040     0.03300
C822        C  0.33655413  0.66025062  0.49451458    -0.04500
C823        C  0.36392311  0.66186771  0.47221665    -0.01600
C824        C  0.39114378  0.63966809  0.47630792     0.03300
C825        C  0.36000744  0.58426396  0.04703752     0.38000
C826        C  0.36442162  0.68709833  0.44554441     0.38000
C827        C  0.42211054  0.64717727  0.45886834     0.36400
C828        C  0.30915601  0.63424856  0.04414122     0.36400
N829        N  0.44697462  0.65443536  0.44581030    -0.38400
N830        N  0.28836121  0.63406060  0.06427824    -0.38400
N831        N  0.36460011  0.70733844  0.42442452    -0.37900
N832        N  0.35927467  0.56388813  0.06800519    -0.37900
C833        C  0.16582083  0.83925254  0.49486459    -0.04500
C834        C  0.14878715  0.84543178  0.02509265    -0.01600
C835        C  0.12050936  0.86638578  0.02487670     0.03300
C836        C  0.11321668  0.88669897  0.49658577    -0.04500
C837        C  0.13026409  0.88088920  0.46625959    -0.01600
C838        C  0.15579687  0.85638145  0.46515547     0.03300
C839        C  0.15932284  0.82898162  0.05610569     0.38000
C840        C  0.11844677  0.89675597  0.43546281     0.38000
C841        C  0.17091300  0.84790361  0.43335393     0.36400
C842        C  0.09620003  0.86277643  0.05140518     0.36400
N843        N  0.18283351  0.84096468  0.40795241    -0.38400
N844        N  0.07577990  0.85757414  0.07125965    -0.38400
N845        N  0.10828500  0.90865398  0.41079699    -0.37900
N846        N  0.16772137  0.81593589  0.08086560    -0.37900
C847        C  0.11245757  0.61309108  0.49153877    -0.04500
C848        C  0.14194855  0.61011345  0.01118456    -0.01600
C849        C  0.16576452  0.63620846  0.01122400     0.03300
C850        C  0.16289832  0.66353970  0.48836974    -0.04500
C851        C  0.13449852  0.66544609  0.46705766    -0.01600
C852        C  0.10835719  0.64177649  0.47045582     0.03300
C853        C  0.14780378  0.58062445  0.03215266     0.38000
C854        C  0.13180973  0.69202617  0.44187898     0.38000
C855        C  0.07698947  0.64788686  0.45296153     0.36400
C856        C  0.19252766  0.63551096  0.03593568     0.36400
N857        N  0.05173063  0.65376132  0.43981390    -0.38400
N858        N  0.21360466  0.63503188  0.05591973    -0.38400
N859        N  0.12943051  0.71331518  0.42194651    -0.37900
N860        N  0.15320818  0.55694271  0.04840824    -0.37900
C861        C  0.33331570  0.50042585  0.34191217    -0.04500
C862        C  0.32968619  0.98113096  0.37173549    -0.01600
C863        C  0.35362964  0.98339064  0.39780729     0.03300
C864        C  0.38459592  0.99995592  0.39209464    -0.04500
C865        C  0.38907115  0.51744419  0.36110052    -0.01600
C866        C  0.36235131  0.52035805  0.33798419     0.03300
C867        C  0.30255200  0.95722803  0.37505712     0.38000
C868        C  0.42114920  0.53192767  0.35197219     0.38000
C869        C  0.36479154  0.54408485  0.31011387     0.36400
C870        C  0.34613827  0.96813282  0.43019860     0.36400
N871        N  0.36662341  0.56314722  0.28802561    -0.38400
N872        N  0.33973351  0.95658298  0.45620745    -0.38400
N873        N  0.44671364  0.54285231  0.34365873    -0.37900
N874        N  0.28167476  0.93732444  0.37808454    -0.37900
C875        C  0.15873553  0.50007996  0.33280423    -0.04500
C876        C  0.12867019  0.51856032  0.32825679    -0.01600
C877        C  0.10280224  0.51628774  0.35239381     0.03300
C878        C  0.10893515  0.00065072  0.38407100    -0.04500
C879        C  0.14039539  0.98483118  0.38952402    -0.01600
C880        C  0.16303778  0.98136665  0.36285170     0.03300
C881        C  0.12429108  0.54035455  0.29908316     0.38000
C882        C  0.15041642  0.97233649  0.42246582     0.38000
C883        C  0.18979496  0.95692565  0.36592510     0.36400
C884        C  0.07019457  0.53036495  0.34426586     0.36400
N885        N  0.21037404  0.93662620  0.36847388    -0.38400
N886        N  0.04408918  0.54100709  0.33717583    -0.38400
N887        N  0.15910053  0.96304559  0.44874165    -0.37900
N888        N  0.12061290  0.55773114  0.27583966    -0.37900
C889        C  0.12148738  0.50284454  0.10539459    -0.04500
C890        C  0.12575372  0.53101105  0.12593525    -0.01600
C891        C  0.14849796  0.52972748  0.15304810     0.03300
C892        C  0.16877995  0.50105655  0.15822402    -0.04500
C893        C  0.16731228  0.97451323  0.13521575    -0.01600
C894        C  0.14420932  0.97575558  0.10838683     0.03300
C895        C  0.11001390  0.56251567  0.11630885     0.38000
C896        C  0.18946616  0.94586671  0.13941822     0.38000
C897        C  0.14486894  0.94989128  0.08322658     0.36400
C898        C  0.15137081  0.55805103  0.17530590     0.36400
N899        N  0.14599776  0.92933983  0.06306465    -0.38400
N900        N  0.15349441  0.58061289  0.19315622    -0.38400
N901        N  0.20726216  0.92315215  0.14299579    -0.37900
N902        N  0.09833032  0.58776033  0.10754834    -0.38900
C903        C  0.39274552  0.50071358  0.11733850    -0.04500
C904        C  0.36703523  0.97622939  0.11702737    -0.01600
C905        C  0.34302778  0.97484968  0.14287269     0.03300
C906        C  0.34259847  0.49950956  0.16788603    -0.04500
C907        C  0.36735805  0.52486295  0.16756791    -0.01600
C908        C  0.39287727  0.52491695  0.14299899     0.03300
C909        C  0.36504687  0.95215191  0.09016274     0.38000
C910        C  0.36562044  0.55180632  0.19157714     0.38000
C911        C  0.41815944  0.55101642  0.14321781     0.36400
C912        C  0.31869180  0.94780130  0.14385205     0.36400
N913        N  0.43821482  0.57195267  0.14367582    -0.38400
N914        N  0.29935104  0.92618364  0.14476870    -0.38400
N915        N  0.36399770  0.57354418  0.21044949    -0.37900
N916        N  0.36288610  0.93307139  0.06867034    -0.37900
C917        C  0.99218555  0.60730980  0.38549517    -0.04500
C918        C  0.02113538  0.62054136  0.37016816    -0.01600
C919        C  0.01816182  0.64619512  0.34571248     0.03300
C920        C  0.98616539  0.65796036  0.33582571    -0.04500
C921        C  0.45714963  0.64358955  0.35008946    -0.01600
C922        C  0.46016080  0.61842050  0.37509072     0.03300
C923        C  0.05394779  0.60775972  0.37963631     0.38000
C924        C  0.42429999  0.65485680  0.33917175     0.38000
C925        C  0.43031018  0.60407935  0.39023792     0.36400
C926        C  0.04806324  0.66075613  0.33090157     0.36400
N927        N  0.40646926  0.59277276  0.40236921    -0.38400
N928        N  0.07194544  0.67238993  0.31918264    -0.38400
N929        N  0.39801104  0.66371386  0.33051379    -0.37900
N930        N  0.08006466  0.59754599  0.38730288    -0.37900
C931        C  0.99462379  0.83246423  0.34458498    -0.04500
C932        C  0.01805249  0.83093147  0.37118709    -0.01600
C933        C  0.01748104  0.85520402  0.39668709     0.03300
C934        C  0.99548894  0.88310764  0.39428619    -0.04500
C935        C  0.47288644  0.88517020  0.36675875    -0.01600
C936        C  0.47110141  0.85894685  0.34339090     0.03300
C937        C  0.04328297  0.80467521  0.37185344     0.38000
C938        C  0.45173732  0.91441734  0.36155373     0.38000
C939        C  0.44518298  0.85944821  0.31772389     0.36400
C940        C  0.04031674  0.85162568  0.42484289     0.36400
N941        N  0.42448575  0.85994454  0.29731645    -0.38400
N942        N  0.05822504  0.84802520  0.44748089    -0.38400
N943        N  0.43503674  0.93765771  0.35625243    -0.37900
N944        N  0.06329760  0.78365100  0.37208968    -0.37900
C945        C  0.00792710  0.84142786  0.17064096    -0.04500
C946        C  0.03869837  0.85422215  0.15871349    -0.01600
C947        C  0.03895113  0.88171939  0.13600029     0.03300
C948        C  0.00860901  0.89469864  0.12316738    -0.04500
C949        C  0.47847157  0.88534166  0.13887514    -0.01600
C950        C  0.47782923  0.85791015  0.16154062     0.03300
C951        C  0.07000020  0.83943865  0.17006746     0.38000
C952        C  0.44909845  0.90630155  0.13463114     0.38000
C953        C  0.44620815  0.84689594  0.17570792     0.36400
C954        C  0.06997173  0.89915433  0.12922864     0.36400
N955        N  0.42086382  0.83821234  0.18683289    -0.38400
N956        N  0.09495731  0.91311862  0.12481131    -0.38400
N957        N  0.42578660  0.92335380  0.13191007    -0.37900
N958        N  0.09511411  0.82770746  0.17886094    -0.37900
C959        C  0.99589006  0.66534560  0.16165785    -0.04500
C960        C  0.01944448  0.63890607  0.16426582    -0.01600
C961        C  0.01827708  0.61198877  0.14168348     0.03300
C962        C  0.99841584  0.61429710  0.11212042    -0.04500
C963        C  0.47579539  0.64160624  0.10870598    -0.01600
C964        C  0.47331567  0.66583573  0.13423994     0.03300
C965        C  0.04471600  0.63897636  0.19056716     0.38000
C966        C  0.45307547  0.64361836  0.08030255     0.38000
C967        C  0.44671694  0.69064154  0.13290683     0.36400
C968        C  0.03536885  0.58105979  0.15088297     0.36400
N969        N  0.42537097  0.71029452  0.13203198    -0.38400
N970        N  0.04788929  0.55610279  0.15929490    -0.38400
N971        N  0.43474197  0.64568125  0.05782681    -0.37900
N972        N  0.06503221  0.63887194  0.21135804    -0.37900
N973        N  0.99174364  0.74667655  0.80432865    -0.35800
N974        N  0.00102743  0.80058960  0.75597630    -0.56400
N975        N  0.99684533  0.75203305  0.70134841    -0.35800
N976        N  0.98788891  0.69804697  0.74995693    -0.56400
C977        C  0.98750604  0.77328180  0.82470657     0.27800
C978        C  0.98288256  0.71887921  0.82198207     0.27800
C979        C  0.00593343  0.77987795  0.68371460     0.27800
C980        C  0.00064709  0.72532366  0.68089788     0.27800
C981        C  0.00410820  0.81870238  0.78424972     0.36400
C982        C  0.00731703  0.82178470  0.73004271     0.36400
C983        C  0.98301546  0.67673789  0.77613630     0.36400
C984        C  0.98526996  0.67962865  0.72184365     0.36400
C985        C  0.97566224  0.76210209  0.85559917    -0.21100
C986        C  0.97330585  0.72775263  0.85406004    -0.21100
C987        C  0.01485425  0.77093252  0.65148564    -0.21100
C988        C  0.01205881  0.73658324  0.64986932    -0.21100
C989        C  0.01345651  0.85135009  0.77619564    -0.22100
C990        C  0.01490371  0.85344459  0.74189313    -0.22100
C991        C  0.97654117  0.64473188  0.76469887    -0.22100
C992        C  0.97719552  0.64669804  0.73034243    -0.22100
C993        C  0.99571027  0.80716300  0.81695300    -0.17500
C994        C  0.98369535  0.68555875  0.81031979    -0.17500
C995        C  0.99339272  0.69113342  0.68896528    -0.17500
C996        C  0.00694530  0.81320839  0.69572966    -0.17500
H997        H  0.96982757  0.77705806  0.87727045     0.15400
H998        H  0.96499553  0.71126208  0.87417306     0.15400
H999        H  0.02339258  0.78734706  0.63140949     0.15400
H1000       H  0.01776765  0.72164796  0.62815832     0.15400
H1001       H  0.01797166  0.87183496  0.79316644     0.13700
H1002       H  0.02127694  0.87568941  0.72738398     0.13700
H1003       H  0.97135647  0.62238038  0.77953732     0.13700
H1004       H  0.97318543  0.62589983  0.71363400     0.13700
H1005       H  0.00351470  0.74679689  0.78117216     0.27000
H1006       H  0.98592087  0.75186373  0.72490423     0.27000
O1007       O  0.99993484  0.59671686  0.55450969    -0.79300
O1008       O  0.00637491  0.90786761  0.56444096    -0.80900
O1009       O  0.44991113  0.50211736  0.59900644    -0.77900
O1010       O  0.06319498  0.50367497  0.59221462    -0.76300
O1011       O  0.10142515  0.00000200  0.54963729    -0.78100
O1012       O  0.40790040  0.00036530  0.55976496    -0.79000
O1013       O  0.00798577  0.95039480  0.60258665    -0.80300
O1014       O  0.00198311  0.55691553  0.59618921    -0.80600
Eu1015     Eu  0.00478933  0.00204734  0.56974304     2.39200
O1016       O  0.03743357  0.96690350  0.53581423    -0.88100
O1017       O  0.46848481  0.53407433  0.53555944    -0.91700
C1018       C  0.00022758  0.58765086  0.58586921     1.03000
C1019       C  0.00806448  0.91922369  0.59481310     1.02800
C1020       C  0.41861578  0.50131558  0.59032927     1.02700
C1021       C  0.09354080  0.50206310  0.58079526     1.00600
H1022       H  0.45584400  0.95264271  0.55404618     0.30300
O1023       O  0.46912333  0.96630527  0.53889967    -1.00500
H1024       H  0.05186493  0.54967824  0.54570621     0.30400
O1025       O  0.03735596  0.53516504  0.53300718    -1.03100
O1026       O  0.99830984  0.90174094  0.95121549    -0.80300
O1027       O  0.99729901  0.59295525  0.94293551    -0.79800
O1028       O  0.40744788  0.94223469  0.00300590    -0.78300
O1029       O  0.09639167  0.94397850  0.99608929    -0.81600
O1030       O  0.09554563  0.55563223  0.99354163    -0.79500
O1031       O  0.40606315  0.55467793  0.00188392    -0.78100
O1032       O  0.44249801  0.99667835  0.90763192    -0.79600
O1033       O  0.05181714  0.99786118  0.90295409    -0.81500
O1034       O  0.40373469  0.00009490  0.94932078    -0.78300
O1035       O  0.09350513  0.00221876  0.94176716    -0.81000
O1036       O  0.44828844  0.90185059  0.00692861    -0.76700
O1037       O  0.44625258  0.59553474  0.99970790    -0.76700
O1038       O  0.05524764  0.59627930  0.99584258    -0.76400
O1039       O  0.05656475  0.90299169  0.00257094    -0.79900
O1040       O  0.99672913  0.94095252  0.90874280    -0.79300
O1041       O  0.99561919  0.55104328  0.90406623    -0.77600
Eu1042     Eu  0.00215197  0.93095428  0.00566118     2.39800
Eu1043     Eu  0.00089064  0.56778647  0.99953839     2.39600
Eu1044     Eu  0.43336080  0.99885398  0.00390313     2.38400
Eu1045     Eu  0.06904349  0.99983520  0.99790062     2.39900
Eu1046     Eu  0.99833317  0.99695035  0.93375772     2.39800
O1047       O  0.03304526  0.53292448  0.96469883    -0.92000
O1048       O  0.46648182  0.96364133  0.97092637    -0.90900
C1049       C  0.99680817  0.91033206  0.91978074     1.03100
C1050       C  0.99537165  0.58209287  0.91263105     1.01800
C1051       C  0.41752458  0.91134392  0.00450255     1.01200
C1052       C  0.08700365  0.91294666  0.99850812     1.03300
C1053       C  0.08600718  0.58663930  0.99362552     1.02200
C1054       C  0.41549317  0.58575206  0.00038666     1.01000
C1055       C  0.41200705  0.99878859  0.91802609     1.01100
C1056       C  0.08301022  0.00041236  0.91124449     1.03700
H1057       H  0.45153525  0.54571691  0.95391626     0.31100
O1058       O  0.46612552  0.53219416  0.96788747    -1.04200
H1059       H  0.04724441  0.94963265  0.95332445     0.33100
O1060       O  0.03398231  0.96384370  0.96760571    -1.06800
N1061       N  0.24748029  0.49882707  0.80117322    -0.35800
N1062       N  0.30182671  0.49911376  0.75310513    -0.56400
N1063       N  0.25369531  0.49887588  0.69911396    -0.35800
N1064       N  0.19916210  0.50014360  0.74720188    -0.56400
C1065       C  0.27393871  0.50785055  0.82036997     0.27800
C1066       C  0.21930716  0.50905895  0.81684084     0.27800
C1067       C  0.28196816  0.50689287  0.68219726     0.27800
C1068       C  0.22748353  0.50691506  0.67902280     0.27800
C1069       C  0.31839652  0.49020767  0.78145997     0.36400
C1070       C  0.32221945  0.49181321  0.72720955     0.36400
C1071       C  0.17902396  0.49208290  0.77325480     0.36400
C1072       C  0.18222319  0.49233493  0.71901868     0.36400
C1073       C  0.26252779  0.52446120  0.84845686    -0.21100
C1074       C  0.22800979  0.52529139  0.84620060    -0.21100
C1075       C  0.27361874  0.52001776  0.65084822    -0.21100
C1076       C  0.23916905  0.51995892  0.64881302    -0.21100
C1077       C  0.34934977  0.47667287  0.77347011    -0.22100
C1078       C  0.35192144  0.47809257  0.73904208    -0.22100
C1079       C  0.14931044  0.47842545  0.76155908    -0.22100
C1080       C  0.15114539  0.47909202  0.72705896    -0.22100
C1081       C  0.30768918  0.49883014  0.81408408    -0.17500
C1082       C  0.18620781  0.50054632  0.80687064    -0.17500
C1083       C  0.19356112  0.49992793  0.68631589    -0.17500
C1084       C  0.31492244  0.49963616  0.69329521    -0.17500
H1085       H  0.27745694  0.53429718  0.86879028     0.15400
H1086       H  0.21119962  0.53578075  0.86454446     0.15400
H1087       H  0.29058909  0.52807429  0.63120529     0.15400
H1088       H  0.22443127  0.52796858  0.62730068     0.15400
H1089       H  0.36856732  0.46790621  0.79069751     0.13700
H1090       H  0.37328389  0.47030959  0.72442686     0.13700
H1091       H  0.12811490  0.46996152  0.77626061     0.13700
H1092       H  0.13175958  0.47113273  0.70986467     0.13700
H1093       H  0.24842971  0.48266406  0.78087925     0.27000
H1094       H  0.25236242  0.48483186  0.72127067     0.27000
N1095       N  0.25263708  0.80130918  0.99501249    -0.35800
N1096       N  0.30299285  0.74859336  0.99498898    -0.56400
N1097       N  0.25015929  0.69861442  0.99220671    -0.35800
N1098       N  0.19970535  0.75114488  0.98986836    -0.56400
C1099       C  0.28054435  0.82046927  0.99257552     0.27800
C1100       C  0.22585305  0.82182248  0.99103106     0.27800
C1101       C  0.27738549  0.67982905  0.98506429     0.27800
C1102       C  0.22291055  0.68149253  0.98165309     0.27800
C1103       C  0.32331791  0.77502314  0.00075904     0.36400
C1104       C  0.32126917  0.72065701  0.00134329     0.36400
C1105       C  0.18068997  0.77842017  0.99605351     0.36400
C1106       C  0.17982989  0.72404482  0.99481104     0.36400
C1107       C  0.27126281  0.85375476  0.98759730    -0.21100
C1108       C  0.23686956  0.85459707  0.98663617    -0.21100
C1109       C  0.26739316  0.65044963  0.96974520    -0.21100
C1110       C  0.23297312  0.65155580  0.96746209    -0.21100
C1111       C  0.35493859  0.76368730  0.01003832    -0.22100
C1112       C  0.35334649  0.72936939  0.01138242    -0.22100
C1113       C  0.14832942  0.76849084  0.00408064    -0.22100
C1114       C  0.14808855  0.73413418  0.00429267    -0.22100
C1115       C  0.31403856  0.80924108  0.99705009    -0.17500
C1116       C  0.19176692  0.81220310  0.99373303    -0.17500
C1117       C  0.18923025  0.69060281  0.98792943    -0.17500
C1118       C  0.31073930  0.68762745  0.99412226    -0.17500
H1119       H  0.28745966  0.87545955  0.98568976     0.15400
H1120       H  0.22177001  0.87702212  0.98381901     0.15400
H1121       H  0.28323200  0.63012839  0.96152379     0.15400
H1122       H  0.21707453  0.63213843  0.95733688     0.15400
H1123       H  0.37701212  0.77841185  0.01540676     0.13700
H1124       H  0.37393950  0.71276813  0.01774633     0.13700
H1125       H  0.12694658  0.78413506  0.00948518     0.13700
H1126       H  0.12662687  0.71848670  0.00989815     0.13700
H1127       H  0.25175727  0.77633162  0.00233059     0.27000
H1128       H  0.24991485  0.71952453  0.00753205     0.27000
C1129       C  0.39185673  0.88457756  0.00237874    -0.04500
C1130       C  0.38381382  0.86476935  0.53077768    -0.01600
C1131       C  0.35698016  0.84192835  0.52962774     0.03300
C1132       C  0.34108154  0.83520583  0.99875910    -0.04500
C1133       C  0.35160192  0.85247676  0.96939518    -0.01600
C1134       C  0.37634128  0.87766881  0.97139789     0.03300
C1135       C  0.40507425  0.86527109  0.56011235     0.38000
C1136       C  0.33714920  0.84412812  0.93713552     0.38000
C1137       C  0.38759924  0.89483112  0.94121896     0.36400
C1138       C  0.34626627  0.82470681  0.56009194     0.36400
N1139       N  0.39680402  0.90844601  0.91715969    -0.38400
N1140       N  0.33778234  0.81078142  0.58428396    -0.38400
N1141       N  0.32563396  0.83746920  0.91138784    -0.37900
N1142       N  0.42267329  0.86381256  0.58312516    -0.37900
C1143       C  0.38892746  0.61212131  0.99912605    -0.04500
C1144       C  0.36107260  0.61000654  0.52092359    -0.01600
C1145       C  0.33557864  0.63455778  0.51929037     0.03300
C1146       C  0.33655414  0.66025064  0.99451460    -0.04500
C1147       C  0.36392313  0.66186772  0.97221665    -0.01600
C1148       C  0.39114380  0.63966810  0.97630799     0.03300
C1149       C  0.36000736  0.58426391  0.54703739     0.38000
C1150       C  0.36442168  0.68709840  0.94554443     0.38000
C1151       C  0.42211059  0.64717729  0.95886846     0.36400
C1152       C  0.30915602  0.63424857  0.54414122     0.36400
N1153       N  0.44697471  0.65443536  0.94581045    -0.38400
N1154       N  0.28836116  0.63406063  0.56427817    -0.38400
N1155       N  0.36460024  0.70733863  0.92442465    -0.37900
N1156       N  0.35927455  0.56388813  0.56800510    -0.37900
C1157       C  0.16582078  0.83925252  0.99486448    -0.04500
C1158       C  0.14878720  0.84543181  0.52509277    -0.01600
C1159       C  0.12050938  0.86638577  0.52487682     0.03300
C1160       C  0.11321673  0.88669903  0.99658567    -0.04500
C1161       C  0.13026414  0.88088925  0.96625952    -0.01600
C1162       C  0.15579684  0.85638144  0.96515539     0.03300
C1163       C  0.15932287  0.82898162  0.55610581     0.38000
C1164       C  0.11844680  0.89675601  0.93546275     0.38000
C1165       C  0.17091293  0.84790360  0.93335387     0.36400
C1166       C  0.09619997  0.86277627  0.55140523     0.36400
N1167       N  0.18283338  0.84096470  0.90795233    -0.38400
N1168       N  0.07577974  0.85757389  0.57125959    -0.38400
N1169       N  0.10828488  0.90865404  0.91079700    -0.37900
N1170       N  0.16772144  0.81593591  0.58086572    -0.37900
C1171       C  0.11245759  0.61309109  0.99153877    -0.04500
C1172       C  0.14194856  0.61011340  0.51118453    -0.01600
C1173       C  0.16576454  0.63620842  0.51122393     0.03300
C1174       C  0.16289835  0.66353971  0.98836977    -0.04500
C1175       C  0.13449861  0.66544606  0.96705762    -0.01600
C1176       C  0.10835727  0.64177647  0.97045576     0.03300
C1177       C  0.14780378  0.58062442  0.53215271     0.38000
C1178       C  0.13180986  0.69202609  0.94187889     0.38000
C1179       C  0.07698958  0.64788686  0.95296147     0.36400
C1180       C  0.19252773  0.63551095  0.53593558     0.36400
N1181       N  0.05173069  0.65376135  0.93981396    -0.38400
N1182       N  0.21360477  0.63503190  0.55591959    -0.38400
N1183       N  0.12943063  0.71331504  0.92194635    -0.37900
N1184       N  0.15320822  0.55694268  0.54840829    -0.37900
C1185       C  0.33331565  0.50042598  0.84191225    -0.04500
C1186       C  0.32968610  0.98113105  0.87173558    -0.01600
C1187       C  0.35362957  0.98339071  0.89780735     0.03300
C1188       C  0.38459588  0.99995594  0.89209466    -0.04500
C1189       C  0.38907116  0.51744414  0.86110049    -0.01600
C1190       C  0.36235127  0.52035814  0.83798425     0.03300
C1191       C  0.30255185  0.95722823  0.87505731     0.38000
C1192       C  0.42114922  0.53192756  0.85197209     0.38000
C1193       C  0.36479158  0.54408484  0.81011388     0.36400
C1194       C  0.34613825  0.96813286  0.93019866     0.36400
N1195       N  0.36662355  0.56314704  0.78802550    -0.38400
N1196       N  0.33973357  0.95658294  0.95620749    -0.38400
N1197       N  0.44671361  0.54285229  0.84365860    -0.37900
N1198       N  0.28167459  0.93732469  0.87808490    -0.37900
C1199       C  0.15873547  0.50008003  0.83280421    -0.04500
C1200       C  0.12867014  0.51856041  0.82825679    -0.01600
C1201       C  0.10280217  0.51628775  0.85239379     0.03300
C1202       C  0.10893516  0.00065076  0.88407099    -0.04500
C1203       C  0.14039542  0.98483123  0.88952401    -0.01600
C1204       C  0.16303785  0.98136677  0.86285170     0.03300
C1205       C  0.12429104  0.54035466  0.79908315     0.38000
C1206       C  0.15041641  0.97233645  0.92246578     0.38000
C1207       C  0.18979498  0.95692571  0.86592504     0.36400
C1208       C  0.07019452  0.53036497  0.84426584     0.36400
N1209       N  0.21037399  0.93662617  0.86847376    -0.38400
N1210       N  0.04408917  0.54100715  0.83717573    -0.38400
N1211       N  0.15910046  0.96304538  0.94874157    -0.37900
N1212       N  0.12061298  0.55773120  0.77583957    -0.37900
C1213       C  0.12148733  0.50284472  0.60539456    -0.04500
C1214       C  0.12575374  0.53101124  0.62593525    -0.01600
C1215       C  0.14849798  0.52972765  0.65304809     0.03300
C1216       C  0.16877998  0.50105669  0.65822398    -0.04500
C1217       C  0.16731231  0.97451342  0.63521571    -0.01600
C1218       C  0.14420935  0.97575575  0.60838680     0.03300
C1219       C  0.11001391  0.56251586  0.61630886     0.38000
C1220       C  0.18946619  0.94586692  0.63941822     0.38000
C1221       C  0.14486889  0.94989140  0.58322664     0.36400
C1222       C  0.15137083  0.55805118  0.67530594     0.36400
N1223       N  0.14599762  0.92933987  0.56306480    -0.38400
N1224       N  0.15349450  0.58061305  0.69315625    -0.38400
N1225       N  0.20726224  0.92315242  0.64299589    -0.37900
N1226       N  0.09833022  0.58776044  0.60754825    -0.38900
C1227       C  0.39274545  0.50071364  0.61733850    -0.04500
C1228       C  0.36703514  0.97622942  0.61702739    -0.01600
C1229       C  0.34302772  0.97484969  0.64287276     0.03300
C1230       C  0.34259842  0.49950964  0.66788601    -0.04500
C1231       C  0.36735796  0.52486303  0.66756784    -0.01600
C1232       C  0.39287718  0.52491705  0.64299893     0.03300
C1233       C  0.36504688  0.95215189  0.59016283     0.38000
C1234       C  0.36562034  0.55180637  0.69157704     0.38000
C1235       C  0.41815933  0.55101654  0.64321772     0.36400
C1236       C  0.31869172  0.94780133  0.64385216     0.36400
N1237       N  0.43821464  0.57195285  0.64367570    -0.38400
N1238       N  0.29935093  0.92618368  0.64476884    -0.38400
N1239       N  0.36399757  0.57354422  0.71044940    -0.37900
N1240       N  0.36288623  0.93307135  0.56867045    -0.37900
C1241       C  0.99218558  0.60730982  0.88549518    -0.04500
C1242       C  0.02113540  0.62054137  0.87016815    -0.01600
C1243       C  0.01816183  0.64619511  0.84571244     0.03300
C1244       C  0.98616542  0.65796036  0.83582567    -0.04500
C1245       C  0.45714966  0.64358954  0.85008941    -0.01600
C1246       C  0.46016082  0.61842050  0.87509067     0.03300
C1247       C  0.05394781  0.60775974  0.87963631     0.38000
C1248       C  0.42430005  0.65485679  0.83917166     0.38000
C1249       C  0.43031020  0.60407936  0.89023783     0.36400
C1250       C  0.04806322  0.66075611  0.83090150     0.36400
N1251       N  0.40646928  0.59277275  0.90236912    -0.38400
N1252       N  0.07194535  0.67238997  0.81918250    -0.38400
N1253       N  0.39801113  0.66371389  0.83051366    -0.37900
N1254       N  0.08006471  0.59754603  0.88730280    -0.37900
C1255       C  0.99462377  0.83246418  0.84458502    -0.04500
C1256       C  0.01805249  0.83093144  0.87118713    -0.01600
C1257       C  0.01748103  0.85520402  0.89668711     0.03300
C1258       C  0.99548892  0.88310764  0.89428617    -0.04500
C1259       C  0.47288641  0.88517017  0.86675876    -0.01600
C1260       C  0.47110138  0.85894679  0.84339094     0.03300
C1261       C  0.04328289  0.80467507  0.87185357     0.38000
C1262       C  0.45173730  0.91441733  0.86155372     0.38000
C1263       C  0.44518297  0.85944814  0.81772391     0.36400
C1264       C  0.04031667  0.85162567  0.92484298     0.36400
N1265       N  0.42448584  0.85994455  0.79731638    -0.38400
N1266       N  0.05822490  0.84802522  0.94748104    -0.38400
N1267       N  0.43503680  0.93765777  0.85625250    -0.37900
N1268       N  0.06329743  0.78365077  0.87208983    -0.37900
C1269       C  0.00792711  0.84142789  0.67064094    -0.04500
C1270       C  0.03869835  0.85422215  0.65871339    -0.01600
C1271       C  0.03895113  0.88171941  0.63600022     0.03300
C1272       C  0.00860899  0.89469867  0.62316740    -0.04500
C1273       C  0.47847159  0.88534171  0.63887522    -0.01600
C1274       C  0.47782925  0.85791019  0.66154070     0.03300
C1275       C  0.07000014  0.83943865  0.67006735     0.38000
C1276       C  0.44909849  0.90630166  0.63463131     0.38000
C1277       C  0.44620819  0.84689611  0.67570814     0.36400
C1278       C  0.06997176  0.89915433  0.62922853     0.36400
N1279       N  0.42086385  0.83821265  0.68683321    -0.38400
N1280       N  0.09495737  0.91311859  0.62481121    -0.38400
N1281       N  0.42578669  0.92335402  0.63191042    -0.37900
N1282       N  0.09511403  0.82770745  0.67886085    -0.37900
C1283       C  0.99589009  0.66534565  0.66165778    -0.04500
C1284       C  0.01944453  0.63890612  0.66426577    -0.01600
C1285       C  0.01827716  0.61198883  0.64168340     0.03300
C1286       C  0.99841589  0.61429711  0.61212037    -0.04500
C1287       C  0.47579541  0.64160630  0.60870591    -0.01600
C1288       C  0.47331564  0.66583578  0.63423989     0.03300
C1289       C  0.04471600  0.63897637  0.69056715     0.38000
C1290       C  0.45307545  0.64361829  0.58030252     0.38000
C1291       C  0.44671683  0.69064152  0.63290680     0.36400
C1292       C  0.03536890  0.58105984  0.65088287     0.36400
N1293       N  0.42537086  0.71029451  0.63203191    -0.38400
N1294       N  0.04788922  0.55610276  0.65929480    -0.38400
N1295       N  0.43474184  0.64568101  0.55782687    -0.37900
N1296       N  0.06503227  0.63887195  0.71135797    -0.37900
N1297       N  0.49173202  0.24667603  0.30432906    -0.35800
N1298       N  0.50101987  0.30059084  0.25598002    -0.56400
N1299       N  0.49684436  0.25203454  0.20135089    -0.35800
N1300       N  0.48788491  0.19804583  0.24995853    -0.56400
C1301       C  0.48749041  0.27328077  0.32470705     0.27800
C1302       C  0.48287244  0.21887786  0.32198227     0.27800
C1303       C  0.50593933  0.27987925  0.18372007     0.27800
C1304       C  0.50065348  0.22532486  0.18090202     0.27800
C1305       C  0.50409113  0.31870466  0.28425384     0.36400
C1306       C  0.50730648  0.32178782  0.23004725     0.36400
C1307       C  0.48301033  0.17673607  0.27613732     0.36400
C1308       C  0.48526705  0.17962884  0.22184433     0.36400
C1309       C  0.47564602  0.26209984  0.35559866    -0.21100
C1310       C  0.47329286  0.22775059  0.35405942    -0.21100
C1311       C  0.51487239  0.27093363  0.15149462    -0.21100
C1312       C  0.51207697  0.23658420  0.14987749    -0.21100
C1313       C  0.51343166  0.35135485  0.27620125    -0.22100
C1314       C  0.51488085  0.35345034  0.24189882    -0.22100
C1315       C  0.47653623  0.14473039  0.26469877    -0.22100
C1316       C  0.47719139  0.14669791  0.23034195    -0.22100
C1317       C  0.49569162  0.30716303  0.31695578    -0.17500
C1318       C  0.48368791  0.18555710  0.31032102    -0.17500
C1319       C  0.49339527  0.19113467  0.18896722    -0.17500
C1320       C  0.50694571  0.31321005  0.19573439    -0.17500
H1321       H  0.46980867  0.27705518  0.37726962     0.15400
H1322       H  0.46498247  0.21125976  0.37417207     0.15400
H1323       H  0.52341897  0.28734840  0.13142213     0.15400
H1324       H  0.51779407  0.22164851  0.12816891     0.15400
H1325       H  0.51793932  0.37184078  0.29317274     0.13700
H1326       H  0.52124791  0.37569761  0.22739078     0.13700
H1327       H  0.47135094  0.12237857  0.27953666     0.13700
H1328       H  0.47318207  0.12590022  0.21363264     0.13700
H1329       H  0.50350418  0.24679745  0.28117310     0.27000
H1330       H  0.48591066  0.25186523  0.22490260     0.27000
O1331       O  0.49994333  0.09671863  0.05451227    -0.79300
O1332       O  0.50636690  0.40787056  0.06444730    -0.80900
O1333       O  0.94991589  0.00212455  0.09901054    -0.77900
O1334       O  0.56319918  0.00367437  0.09221558    -0.76300
O1335       O  0.60142210  0.50000657  0.04963695    -0.78100
O1336       O  0.90789688  0.50035606  0.05975955    -0.79000
O1337       O  0.50798060  0.45039885  0.10259129    -0.80300
O1338       O  0.50199216  0.05691637  0.09619069    -0.80600
Eu1339     Eu  0.50478583  0.50204741  0.06974170     2.39200
O1340       O  0.53743413  0.46690299  0.03581699    -0.88100
O1341       O  0.96848658  0.03407622  0.03556447    -0.91700
C1342       C  0.50023666  0.08765208  0.08587156     1.03000
C1343       C  0.50805675  0.41922743  0.09481933     1.02800
C1344       C  0.91862017  0.00132588  0.09033442     1.02700
C1345       C  0.59354488  0.00206003  0.08079593     1.00600
H1346       H  0.95584692  0.45264910  0.05403788     0.30300
O1347       O  0.96911761  0.46630305  0.03890170    -1.00500
H1348       H  0.55187921  0.04968680  0.04571627     0.30400
O1349       O  0.53735543  0.03515997  0.03300504    -1.03100
O1350       O  0.49830952  0.40173853  0.45122099    -0.80300
O1351       O  0.49729924  0.09295885  0.44294173    -0.79800
O1352       O  0.90744997  0.44223241  0.50299576    -0.78300
O1353       O  0.59638853  0.44397706  0.49609377    -0.81600
O1354       O  0.59554845  0.05563017  0.49354092    -0.79500
O1355       O  0.90606480  0.05467788  0.50188917    -0.78100
O1356       O  0.94249601  0.49668150  0.40762959    -0.79600
O1357       O  0.55181742  0.49785334  0.40295377    -0.81500
O1358       O  0.90373138  0.50009494  0.44931702    -0.78300
O1359       O  0.59350458  0.50221452  0.44176757    -0.81000
O1360       O  0.94829019  0.40184899  0.50692987    -0.76700
O1361       O  0.94625463  0.09553433  0.49971434    -0.76700
O1362       O  0.55525101  0.09627757  0.49584425    -0.76400
O1363       O  0.55656229  0.40299004  0.50257899    -0.79900
O1364       O  0.49672526  0.44094850  0.40874674    -0.79300
O1365       O  0.49561450  0.05104700  0.40407252    -0.77600
Eu1366     Eu  0.50215130  0.43095454  0.50566439     2.39800
Eu1367     Eu  0.50089371  0.06778673  0.49954253     2.39600
Eu1368     Eu  0.93335873  0.49885293  0.50389825     2.38400
Eu1369     Eu  0.56904144  0.49983533  0.49790048     2.39900
Eu1370     Eu  0.49833187  0.49694819  0.43375612     2.39800
O1371       O  0.53304728  0.03292595  0.46470050    -0.92000
O1372       O  0.96648068  0.46363799  0.47092473    -0.90900
C1373       C  0.49680540  0.41032858  0.41978614     1.03100
C1374       C  0.49536748  0.08209638  0.41263766     1.01800
C1375       C  0.91752691  0.41134197  0.50449627     1.01200
C1376       C  0.58700091  0.41294510  0.49851571     1.03300
C1377       C  0.58601033  0.08663710  0.49362634     1.02200
C1378       C  0.91549510  0.08575174  0.50039269     1.01000
C1379       C  0.91200452  0.49879171  0.41802235     1.01100
C1380       C  0.58301052  0.50040470  0.41124487     1.03700
H1381       H  0.95153835  0.04571642  0.45392251     0.31100
O1382       O  0.96612815  0.03219439  0.46789207    -1.04200
H1383       H  0.54724166  0.44963238  0.45332870     0.33100
O1384       O  0.53398220  0.46384118  0.46760536    -1.06800
N1385       N  0.74747947  0.99883459  0.30117667    -0.35800
N1386       N  0.80183044  0.99912805  0.25311297    -0.56400
N1387       N  0.75370304  0.99888546  0.19911837    -0.35800
N1388       N  0.69916482  0.00015068  0.24720162    -0.56400
C1389       C  0.77393594  0.00785639  0.32037702     0.27800
C1390       C  0.71930470  0.00906536  0.31684225     0.27800
C1391       C  0.78197644  0.00690657  0.18220434     0.27800
C1392       C  0.72749220  0.00692112  0.17902454     0.27800
C1393       C  0.81839829  0.99022060  0.28146855     0.36400
C1394       C  0.82222592  0.99183041  0.22721868     0.36400
C1395       C  0.67902405  0.99209111  0.27325283     0.36400
C1396       C  0.68222836  0.99234153  0.21901713     0.36400
C1397       C  0.76252204  0.02446363  0.34846463    -0.21100
C1398       C  0.72800449  0.02529556  0.34620408    -0.21100
C1399       C  0.77362837  0.02003056  0.15085470    -0.21100
C1400       C  0.73917901  0.01996625  0.14881587    -0.21100
C1401       C  0.84935298  0.97668819  0.27348006    -0.22100
C1402       C  0.85192771  0.97811085  0.23905245    -0.22100
C1403       C  0.64931098  0.97843472  0.26155482    -0.22100
C1404       C  0.65114935  0.97910005  0.22705499    -0.22100
C1405       C  0.80768754  0.99883900  0.31409287    -0.17500
C1406       C  0.68620589  0.00055347  0.30686921    -0.17500
C1407       C  0.69356946  0.99993224  0.18631486    -0.17500
C1408       C  0.81493059  0.99965301  0.19330427    -0.17500
H1409       H  0.77744895  0.03429696  0.36880100     0.15400
H1410       H  0.71119255  0.03578424  0.36454671     0.15400
H1411       H  0.79059965  0.02808994  0.13121368     0.15400
H1412       H  0.72444230  0.02797413  0.12730219     0.15400
H1413       H  0.86856933  0.96792060  0.29070829     0.13700
H1414       H  0.87329172  0.97032989  0.22443833     0.13700
H1415       H  0.62811385  0.96997159  0.27625454     0.13700
H1416       H  0.63176504  0.97114047  0.20985914     0.13700
H1417       H  0.74843116  0.98267364  0.28088114     0.27000
H1418       H  0.75236966  0.98484139  0.22127504     0.27000
N1419       N  0.75263541  0.30130846  0.49501953    -0.35800
N1420       N  0.80299273  0.24859366  0.49499213    -0.56400
N1421       N  0.75016159  0.19861442  0.49221542    -0.35800
N1422       N  0.69970502  0.25114256  0.48988077    -0.56400
C1423       C  0.78054174  0.32047041  0.49258642     0.27800
C1424       C  0.72585004  0.32182078  0.49104150     0.27800
C1425       C  0.77738748  0.17982983  0.48507002     0.27800
C1426       C  0.72291272  0.18149202  0.48166328     0.27800
C1427       C  0.82331917  0.27502427  0.50075413     0.36400
C1428       C  0.82127235  0.22065808  0.50134068     0.36400
C1429       C  0.68068918  0.27841688  0.49606809     0.36400
C1430       C  0.67983136  0.22404174  0.49482555     0.36400
C1431       C  0.77125811  0.35375631  0.48761567    -0.21100
C1432       C  0.73686486  0.35459638  0.48665129    -0.21100
C1433       C  0.76739515  0.15045138  0.46974970    -0.21100
C1434       C  0.73297513  0.15155648  0.46746973    -0.21100
C1435       C  0.85494377  0.26368914  0.51002028    -0.22100
C1436       C  0.85335280  0.22937179  0.51136729    -0.22100
C1437       C  0.64833013  0.26848630  0.50409930    -0.22100
C1438       C  0.64809050  0.23412960  0.50431034    -0.22100
C1439       C  0.81403742  0.30924254  0.49705258    -0.17500
C1440       C  0.69176422  0.31220005  0.49374535    -0.17500
C1441       C  0.68923266  0.19060052  0.48794237    -0.17500
C1442       C  0.81074150  0.18762762  0.49412577    -0.17500
H1443       H  0.78745345  0.37546262  0.48571379     0.15400
H1444       H  0.72176395  0.37702080  0.48383687     0.15400
H1445       H  0.78323415  0.13013148  0.46152551     0.15400
H1446       H  0.71707650  0.13213899  0.45734497     0.15400
H1447       H  0.87701965  0.27841358  0.51537898     0.13700
H1448       H  0.87394874  0.21277182  0.51772439     0.13700
H1449       H  0.62694767  0.28412986  0.50950714     0.13700
H1450       H  0.62663003  0.21848104  0.50991752     0.13700
H1451       H  0.75175728  0.27632923  0.50233151     0.27000
H1452       H  0.74991760  0.21952355  0.50754228     0.27000
C1453       C  0.89185960  0.38457585  0.50237186    -0.04500
C1454       C  0.88383336  0.36475423  0.03076572    -0.01600
C1455       C  0.85699599  0.34191789  0.02962136     0.03300
C1456       C  0.84108091  0.33520767  0.49875802    -0.04500
C1457       C  0.85158743  0.35248979  0.46939518    -0.01600
C1458       C  0.87632738  0.37768154  0.47139602     0.03300
C1459       C  0.90511831  0.36523285  0.06008350     0.38000
C1460       C  0.83711681  0.34415629  0.43713930     0.38000
C1461       C  0.88757262  0.39485474  0.44121841     0.36400
C1462       C  0.84629345  0.32469030  0.06008593     0.36400
N1463       N  0.89676961  0.40847734  0.41716039    -0.38400
N1464       N  0.83781674  0.31076074  0.08427811    -0.38400
N1465       N  0.82558539  0.33751128  0.41139500    -0.37900
N1466       N  0.92274150  0.36375365  0.08307684    -0.37900
C1467       C  0.88892923  0.11212043  0.49913158    -0.04500
C1468       C  0.86107510  0.11000671  0.02093002    -0.01600
C1469       C  0.83558175  0.13455874  0.01929698     0.03300
C1470       C  0.83655564  0.16024954  0.49451874    -0.04500
C1471       C  0.86392262  0.16186332  0.47221832    -0.01600
C1472       C  0.89114447  0.13966572  0.47631190     0.03300
C1473       C  0.86001055  0.08426569  0.04704544     0.38000
C1474       C  0.86441922  0.18709026  0.44554274     0.38000
C1475       C  0.92211273  0.14717851  0.45887680     0.36400
C1476       C  0.80916155  0.13425239  0.04415022     0.36400
N1477       N  0.94697819  0.15444000  0.44582327    -0.38400
N1478       N  0.78836847  0.13406689  0.06428897    -0.38400
N1479       N  0.86459643  0.20732791  0.42442052    -0.37900
N1480       N  0.85927694  0.06389207  0.06801520    -0.37900
C1481       C  0.66581635  0.33924818  0.49487611    -0.04500
C1482       C  0.64878670  0.34543276  0.02510538    -0.01600
C1483       C  0.62051088  0.36639007  0.02489068     0.03300
C1484       C  0.61321374  0.38669696  0.49659598    -0.04500
C1485       C  0.63025732  0.38088141  0.46626897    -0.01600
C1486       C  0.65578934  0.35637295  0.46516584     0.03300
C1487       C  0.65932825  0.32898900  0.05611971     0.38000
C1488       C  0.61843934  0.39674657  0.43547157     0.38000
C1489       C  0.67090335  0.34789245  0.43336423     0.36400
C1490       C  0.59621539  0.36280324  0.05143500     0.36400
N1491       N  0.68282186  0.34095315  0.40796193    -0.38400
N1492       N  0.57580828  0.35762182  0.07130803    -0.38400
N1493       N  0.60827645  0.40864437  0.41080612    -0.37900
N1494       N  0.66773257  0.31594868  0.08088045    -0.37900
C1495       C  0.61246122  0.11308804  0.49154198    -0.04500
C1496       C  0.64195140  0.11010833  0.01118854    -0.01600
C1497       C  0.66576813  0.13620255  0.01122992     0.03300
C1498       C  0.66290137  0.16353705  0.48837969    -0.04500
C1499       C  0.63450192  0.16544599  0.46706762    -0.01600
C1500       C  0.60836152  0.14177514  0.47046160     0.03300
C1501       C  0.64780527  0.08061837  0.03215579     0.38000
C1502       C  0.63181277  0.19202934  0.44189244     0.38000
C1503       C  0.57699488  0.14788569  0.45296595     0.36400
C1504       C  0.69253303  0.13550110  0.03593947     0.36400
N1505       N  0.55173617  0.15375921  0.43981781    -0.38400
N1506       N  0.71361212  0.13502006  0.05592124    -0.38400
N1507       N  0.62943284  0.21332056  0.42196243    -0.37900
N1508       N  0.65321012  0.05693658  0.04841113    -0.37900
C1509       C  0.83331217  0.00043354  0.34192311    -0.04500
C1510       C  0.82968682  0.48113100  0.37172888    -0.01600
C1511       C  0.85362502  0.48340106  0.39780394     0.03300
C1512       C  0.88459416  0.49996024  0.39208928    -0.04500
C1513       C  0.88906809  0.01745006  0.36111136    -0.01600
C1514       C  0.86234605  0.02036877  0.33799849     0.03300
C1515       C  0.80255598  0.45722445  0.37505186     0.38000
C1516       C  0.92114464  0.03193710  0.35198378     0.38000
C1517       C  0.86478298  0.04410167  0.31013314     0.36400
C1518       C  0.84612584  0.46815826  0.43020017     0.36400
N1519       N  0.86661138  0.06316763  0.28804767    -0.38400
N1520       N  0.83971689  0.45661910  0.45621256    -0.38400
N1521       N  0.94670798  0.04286395  0.34366990    -0.37900
N1522       N  0.78168175  0.43731781  0.37808012    -0.37900
C1523       C  0.65873220  0.00008693  0.33280130    -0.04500
C1524       C  0.62866741  0.01856834  0.32825411    -0.01600
C1525       C  0.60280024  0.01629728  0.35239242     0.03300
C1526       C  0.60893648  0.50064096  0.38407221    -0.04500
C1527       C  0.64039724  0.48482199  0.38952624    -0.01600
C1528       C  0.66304150  0.48135947  0.36285463     0.03300
C1529       C  0.62428764  0.04036118  0.29907936     0.38000
C1530       C  0.65041576  0.47232465  0.42246797     0.38000
C1531       C  0.68980044  0.45692020  0.36592859     0.36400
C1532       C  0.57019264  0.03037487  0.34426533     0.36400
N1533       N  0.71038084  0.43662214  0.36847858    -0.38400
N1534       N  0.54408716  0.04101709  0.33717577    -0.38400
N1535       N  0.65909715  0.46303106  0.44874382    -0.37900
N1536       N  0.62060828  0.05773643  0.27583500    -0.37900
C1537       C  0.62149257  0.00284297  0.10539494    -0.04500
C1538       C  0.62575637  0.03100919  0.12593680    -0.01600
C1539       C  0.64850301  0.02972800  0.15304777     0.03300
C1540       C  0.66879002  0.00106007  0.15822108    -0.04500
C1541       C  0.66729948  0.47450896  0.13522000    -0.01600
C1542       C  0.64419890  0.47575359  0.10838964     0.03300
C1543       C  0.61001116  0.06251208  0.11631337     0.38000
C1544       C  0.68945052  0.44586072  0.13942366     0.38000
C1545       C  0.64485393  0.44988575  0.08323307     0.36400
C1546       C  0.65137057  0.05804985  0.17530852     0.36400
N1547       N  0.64598003  0.42933023  0.06307535    -0.38400
N1548       N  0.65348919  0.08060965  0.19316203    -0.38400
N1549       N  0.70724555  0.42314559  0.14300191    -0.37900
N1550       N  0.59832389  0.08775584  0.10755526    -0.38900
C1551       C  0.89275066  0.00072683  0.11734487    -0.04500
C1552       C  0.86703000  0.47621612  0.11701790    -0.01600
C1553       C  0.84301941  0.47483699  0.14286054     0.03300
C1554       C  0.84260714  0.99952442  0.16789600    -0.04500
C1555       C  0.86736683  0.02487783  0.16757556    -0.01600
C1556       C  0.89288484  0.02493036  0.14300526     0.03300
C1557       C  0.86504779  0.45213543  0.09015527     0.38000
C1558       C  0.86563113  0.05182246  0.19158371     0.38000
C1559       C  0.91816918  0.05102754  0.14322329     0.36400
C1560       C  0.81868170  0.44779039  0.14383638     0.36400
N1561       N  0.93822709  0.07196130  0.14368090    -0.38400
N1562       N  0.79933932  0.42617416  0.14475117    -0.38400
N1563       N  0.86401096  0.07356192  0.21045452    -0.37900
N1564       N  0.86289502  0.43305033  0.06866605    -0.37900
C1565       C  0.49217913  0.10731275  0.38550203    -0.04500
C1566       C  0.52112830  0.12054284  0.37017309    -0.01600
C1567       C  0.51815426  0.14619595  0.34571706     0.03300
C1568       C  0.48615787  0.15795989  0.33582890    -0.04500
C1569       C  0.95714248  0.14359162  0.35009611    -0.01600
C1570       C  0.96015405  0.11842440  0.37509942     0.03300
C1571       C  0.55394082  0.10776104  0.37964073     0.38000
C1572       C  0.92429296  0.15485751  0.33917690     0.38000
C1573       C  0.93030340  0.10408685  0.39025010     0.36400
C1574       C  0.54805556  0.16075794  0.33090755     0.36400
N1575       N  0.90646123  0.09278501  0.40238339    -0.38400
N1576       N  0.57193809  0.17239226  0.31918998    -0.38400
N1577       N  0.89800475  0.16371293  0.33051500    -0.37900
N1578       N  0.58005752  0.09754712  0.38730759    -0.37900
C1579       C  0.49460620  0.33246144  0.34459084    -0.04500
C1580       C  0.51803968  0.33092800  0.37118893    -0.01600
C1581       C  0.51747363  0.35519985  0.39668986     0.03300
C1582       C  0.49548169  0.38310381  0.39429274    -0.04500
C1583       C  0.97287304  0.38516617  0.36677021    -0.01600
C1584       C  0.97108232  0.35894277  0.34340287     0.03300
C1585       C  0.54326781  0.30466977  0.37185162     0.38000
C1586       C  0.95172556  0.41441468  0.36156728     0.38000
C1587       C  0.94515948  0.35944429  0.31774015     0.36400
C1588       C  0.54031319  0.35162001  0.42484292     0.36400
N1589       N  0.92446023  0.35993941  0.29733471    -0.38400
N1590       N  0.55822369  0.34801913  0.44747924    -0.38400
N1591       N  0.93502652  0.43765597  0.35626528    -0.37900
N1592       N  0.56327951  0.28364282  0.37208622    -0.37900
C1593       C  0.50792549  0.34142847  0.17064439    -0.04500
C1594       C  0.53869577  0.35424938  0.15874203    -0.01600
C1595       C  0.53894411  0.38174713  0.13602879     0.03300
C1596       C  0.50860079  0.39470293  0.12317460    -0.04500
C1597       C  0.97845982  0.38532132  0.13886088    -0.01600
C1598       C  0.97782127  0.35788508  0.16152038     0.03300
C1599       C  0.57000025  0.33949516  0.17012584     0.38000
C1600       C  0.94907687  0.40626451  0.13460691     0.38000
C1601       C  0.94619751  0.34684085  0.17565935     0.36400
C1602       C  0.56995665  0.39920522  0.12927752     0.36400
N1603       N  0.92085187  0.33813204  0.18676197    -0.38400
N1604       N  0.59493443  0.41318909  0.12487759    -0.38400
N1605       N  0.92575632  0.42330362  0.13187932    -0.37900
N1606       N  0.59511596  0.32778829  0.17894670    -0.37900
C1607       C  0.49589573  0.16534792  0.16165925    -0.04500
C1608       C  0.51944813  0.13890684  0.16427031    -0.01600
C1609       C  0.51828105  0.11198887  0.14168862     0.03300
C1610       C  0.49842340  0.11429805  0.11212322    -0.04500
C1611       C  0.97580502  0.14160870  0.10870601    -0.01600
C1612       C  0.97332525  0.16584002  0.13423814     0.03300
C1613       C  0.54471644  0.13897629  0.19057476     0.38000
C1614       C  0.95308919  0.14362249  0.08029951     0.38000
C1615       C  0.94673090  0.19065042  0.13289873     0.36400
C1616       C  0.53536817  0.08105829  0.15089121     0.36400
N1617       N  0.92538810  0.21030671  0.13201767    -0.38400
N1618       N  0.54788475  0.05609980  0.15930459    -0.38400
N1619       N  0.93476045  0.14568724  0.05782006    -0.37900
N1620       N  0.56502934  0.13887223  0.21136889    -0.37900
N1621       N  0.49173211  0.24667602  0.80432904    -0.35800
N1622       N  0.50101974  0.30059082  0.75598005    -0.56400
N1623       N  0.49684426  0.25203456  0.70135087    -0.35800
N1624       N  0.48788504  0.19804583  0.74995845    -0.56400
C1625       C  0.48749035  0.27328074  0.82470713     0.27800
C1626       C  0.48287246  0.21887783  0.82198225     0.27800
C1627       C  0.50593928  0.27987928  0.68372008     0.27800
C1628       C  0.50065341  0.22532490  0.68090196     0.27800
C1629       C  0.50409100  0.31870462  0.78425388     0.36400
C1630       C  0.50730643  0.32178781  0.73004731     0.36400
C1631       C  0.48301044  0.17673604  0.77613725     0.36400
C1632       C  0.48526716  0.17962884  0.72184425     0.36400
C1633       C  0.47564587  0.26209982  0.85559878    -0.21100
C1634       C  0.47329274  0.22775050  0.85405943    -0.21100
C1635       C  0.51487235  0.27093369  0.65149459    -0.21100
C1636       C  0.51207688  0.23658426  0.64987746    -0.21100
C1637       C  0.51343161  0.35135481  0.77620132    -0.22100
C1638       C  0.51488088  0.35345029  0.74189892    -0.22100
C1639       C  0.47653631  0.14473032  0.76469871    -0.22100
C1640       C  0.47719148  0.14669790  0.73034187    -0.22100
C1641       C  0.49569152  0.30716301  0.81695582    -0.17500
C1642       C  0.48368796  0.18555708  0.81032093    -0.17500
C1643       C  0.49339531  0.19113468  0.68896715    -0.17500
C1644       C  0.50694565  0.31321008  0.69573445    -0.17500
H1645       H  0.46980852  0.27705515  0.87726975     0.15400
H1646       H  0.46498232  0.21125955  0.87417195     0.15400
H1647       H  0.52341894  0.28734847  0.63142209     0.15400
H1648       H  0.51779399  0.22164856  0.62816890     0.15400
H1649       H  0.51793930  0.37184071  0.79317283     0.13700
H1650       H  0.52124808  0.37569754  0.72739093     0.13700
H1651       H  0.47135093  0.12237854  0.77953661     0.13700
H1652       H  0.47318209  0.12590027  0.71363250     0.13700
H1653       H  0.50350430  0.24679749  0.78117312     0.27000
H1654       H  0.48591050  0.25186523  0.72490254     0.27000
O1655       O  0.49994324  0.09671860  0.55451223    -0.79300
O1656       O  0.50636697  0.40787062  0.56444730    -0.80900
O1657       O  0.94991583  0.00212457  0.59901054    -0.77900
O1658       O  0.56319915  0.00367444  0.59221559    -0.76300
O1659       O  0.60142214  0.50000665  0.54963692    -0.78100
O1660       O  0.90789676  0.50035612  0.55975957    -0.79000
O1661       O  0.50798065  0.45039887  0.60259133    -0.80300
O1662       O  0.50199205  0.05691639  0.59619069    -0.80600
Eu1663     Eu  0.50478577  0.50204743  0.56974169     2.39200
O1664       O  0.53743407  0.46690308  0.53581692    -0.88100
O1665       O  0.96848650  0.03407622  0.53556446    -0.91700
C1666       C  0.50023657  0.08765208  0.58587153     1.03000
C1667       C  0.50805681  0.41922746  0.59481934     1.02800
C1668       C  0.91862013  0.00132588  0.59033438     1.02700
C1669       C  0.59354483  0.00206011  0.58079589     1.00600
H1670       H  0.95584684  0.45264909  0.55403784     0.30300
O1671       O  0.96911752  0.46630304  0.53890165    -1.00500
H1672       H  0.55187940  0.04968691  0.54571638     0.30400
O1673       O  0.53735547  0.03515997  0.53300507    -1.03100
O1674       O  0.49830954  0.40173856  0.95122098    -0.80300
O1675       O  0.49729913  0.09295879  0.94294171    -0.79800
O1676       O  0.90744996  0.44223243  0.00299567    -0.78300
O1677       O  0.59638855  0.44397701  0.99609372    -0.81600
O1678       O  0.59554845  0.05563020  0.99354103    -0.79500
O1679       O  0.90606481  0.05467793  0.00188909    -0.78100
O1680       O  0.94249607  0.49668152  0.90762950    -0.79600
O1681       O  0.55181733  0.49785353  0.90295375    -0.81500
O1682       O  0.90373148  0.50009495  0.94931696    -0.78300
O1683       O  0.59350451  0.50221449  0.94176754    -0.81000
O1684       O  0.94829017  0.40184903  0.00692998    -0.76700
O1685       O  0.94625461  0.09553441  0.99971449    -0.76700
O1686       O  0.55525098  0.09627758  0.99584436    -0.76400
O1687       O  0.55656225  0.40299004  0.00257893    -0.79900
O1688       O  0.49672530  0.44094848  0.90874667    -0.79300
O1689       O  0.49561463  0.05104695  0.90407248    -0.77600
Eu1690     Eu  0.50215127  0.43095452  0.00566446     2.39800
Eu1691     Eu  0.50089370  0.06778677  0.99954254     2.39600
Eu1692     Eu  0.93335882  0.49885291  0.00389824     2.38400
Eu1693     Eu  0.56904141  0.49983524  0.99790046     2.39900
Eu1694     Eu  0.49833182  0.49694819  0.93375609     2.39800
O1695       O  0.53304736  0.03292602  0.96470051    -0.92000
O1696       O  0.96648083  0.46363799  0.97092478    -0.90900
C1697       C  0.49680541  0.41032859  0.91978612     1.03100
C1698       C  0.49536747  0.08209633  0.91263763     1.01800
C1699       C  0.91752690  0.41134200  0.00449627     1.01200
C1700       C  0.58700090  0.41294506  0.99851565     1.03300
C1701       C  0.58601031  0.08663712  0.99362642     1.02200
C1702       C  0.91549510  0.08575178  0.00039272     1.01000
C1703       C  0.91200459  0.49879171  0.91802228     1.01100
C1704       C  0.58301044  0.50040476  0.91124485     1.03700
H1705       H  0.95153841  0.04571646  0.95392245     0.31100
O1706       O  0.96612818  0.03219445  0.96789207    -1.04200
H1707       H  0.54724145  0.44963238  0.95332880     0.33100
O1708       O  0.53398207  0.46384116  0.96760539    -1.06800
N1709       N  0.74747945  0.99883470  0.80117654    -0.35800
N1710       N  0.80183042  0.99912824  0.75311308    -0.56400
N1711       N  0.75370301  0.99888560  0.69911846    -0.35800
N1712       N  0.69916477  0.00015098  0.74720159    -0.56400
C1713       C  0.77393592  0.00785649  0.82037704     0.27800
C1714       C  0.71930468  0.00906548  0.81684223     0.27800
C1715       C  0.78197647  0.00690666  0.68220436     0.27800
C1716       C  0.72749221  0.00692139  0.67902454     0.27800
C1717       C  0.81839820  0.99022061  0.78146863     0.36400
C1718       C  0.82222587  0.99183051  0.72721879     0.36400
C1719       C  0.67902398  0.99209139  0.77325279     0.36400
C1720       C  0.68222833  0.99234180  0.71901709     0.36400
C1721       C  0.76252210  0.02446371  0.84846471    -0.21100
C1722       C  0.72800451  0.02529559  0.84620411    -0.21100
C1723       C  0.77362854  0.02003068  0.65085469    -0.21100
C1724       C  0.73917914  0.01996648  0.64881590    -0.21100
C1725       C  0.84935280  0.97668804  0.77348015    -0.22100
C1726       C  0.85192756  0.97811074  0.73905254    -0.22100
C1727       C  0.64931092  0.97843495  0.76155477    -0.22100
C1728       C  0.65114934  0.97910032  0.72705495    -0.22100
C1729       C  0.80768748  0.99883901  0.81409292    -0.17500
C1730       C  0.68620584  0.00055367  0.80686917    -0.17500
C1731       C  0.69356945  0.99993252  0.68631483    -0.17500
C1732       C  0.81493058  0.99965308  0.69330437    -0.17500
H1733       H  0.77744907  0.03429703  0.86880104     0.15400
H1734       H  0.71119252  0.03578422  0.86454673     0.15400
H1735       H  0.79059989  0.02809001  0.63121370     0.15400
H1736       H  0.72444245  0.02797441  0.62730223     0.15400
H1737       H  0.86856913  0.96792040  0.79070837     0.13700
H1738       H  0.87329153  0.97032969  0.72443843     0.13700
H1739       H  0.62811378  0.96997177  0.77625445     0.13700
H1740       H  0.63176504  0.97114077  0.70985910     0.13700
H1741       H  0.74843113  0.98267384  0.78088100     0.27000
H1742       H  0.75236961  0.98484155  0.72127509     0.27000
N1743       N  0.75263546  0.30130844  0.99501958    -0.35800
N1744       N  0.80299280  0.24859367  0.99499212    -0.56400
N1745       N  0.75016164  0.19861449  0.99221546    -0.35800
N1746       N  0.69970507  0.25114255  0.98988069    -0.56400
C1747       C  0.78054179  0.32047039  0.99258641     0.27800
C1748       C  0.72585009  0.32182083  0.99104148     0.27800
C1749       C  0.77738753  0.17982984  0.98507003     0.27800
C1750       C  0.72291277  0.18149204  0.98166331     0.27800
C1751       C  0.82331922  0.27502429  0.00075419     0.36400
C1752       C  0.82127242  0.22065811  0.00134075     0.36400
C1753       C  0.68068921  0.27841691  0.99606799     0.36400
C1754       C  0.67983139  0.22404177  0.99482553     0.36400
C1755       C  0.77125810  0.35375631  0.98761559    -0.21100
C1756       C  0.73686483  0.35459650  0.98665126    -0.21100
C1757       C  0.76739522  0.15045140  0.96974966    -0.21100
C1758       C  0.73297519  0.15155654  0.96746973    -0.21100
C1759       C  0.85494379  0.26368918  0.01002037    -0.22100
C1760       C  0.85335286  0.22937182  0.01136740    -0.22100
C1761       C  0.64833008  0.26848645  0.00409923    -0.22100
C1762       C  0.64809051  0.23412969  0.00431032    -0.22100
C1763       C  0.81403746  0.30924255  0.99705261    -0.17500
C1764       C  0.69176429  0.31220006  0.99374522    -0.17500
C1765       C  0.68923268  0.19060052  0.98794240    -0.17500
C1766       C  0.81074154  0.18762764  0.99412588    -0.17500
H1767       H  0.78745348  0.37546257  0.98571366     0.15400
H1768       H  0.72176394  0.37702091  0.98383687     0.15400
H1769       H  0.78323422  0.13013147  0.96152550     0.15400
H1770       H  0.71707651  0.13213906  0.95734498     0.15400
H1771       H  0.87701964  0.27841365  0.01537902     0.13700
H1772       H  0.87394884  0.21277188  0.01772451     0.13700
H1773       H  0.62694765  0.28413005  0.00950698     0.13700
H1774       H  0.62663008  0.21848108  0.00991751     0.13700
H1775       H  0.75175729  0.27632925  0.00233169     0.27000
H1776       H  0.74991769  0.21952360  0.00754229     0.27000
C1777       C  0.89185960  0.38457588  0.00237183    -0.04500
C1778       C  0.88383325  0.36475429  0.53076579    -0.01600
C1779       C  0.85699592  0.34191786  0.52962140     0.03300
C1780       C  0.84108093  0.33520772  0.99875800    -0.04500
C1781       C  0.85158738  0.35248988  0.96939516    -0.01600
C1782       C  0.87632733  0.37768165  0.97139600     0.03300
C1783       C  0.90511802  0.36523312  0.56008370     0.38000
C1784       C  0.83711678  0.34415634  0.93713927     0.38000
C1785       C  0.88757263  0.39485484  0.94121840     0.36400
C1786       C  0.84629337  0.32469024  0.56008596     0.36400
N1787       N  0.89676972  0.40847737  0.91716038    -0.38400
N1788       N  0.83781664  0.31076072  0.58427816    -0.38400
N1789       N  0.82558542  0.33751126  0.91139496    -0.37900
N1790       N  0.92274106  0.36375416  0.58307717    -0.37900
C1791       C  0.88892921  0.11212047  0.99913160    -0.04500
C1792       C  0.86107514  0.11000674  0.52093003    -0.01600
C1793       C  0.83558177  0.13455877  0.51929696     0.03300
C1794       C  0.83655563  0.16024955  0.99451883    -0.04500
C1795       C  0.86392262  0.16186336  0.97221841    -0.01600
C1796       C  0.89114449  0.13966580  0.97631199     0.03300
C1797       C  0.86001054  0.08426565  0.54704540     0.38000
C1798       C  0.86441915  0.18709027  0.94554280     0.38000
C1799       C  0.92211273  0.14717858  0.95887685     0.36400
C1800       C  0.80916157  0.13425243  0.54415019     0.36400
N1801       N  0.94697813  0.15444002  0.94582317    -0.38400
N1802       N  0.78836849  0.13406691  0.56428896    -0.38400
N1803       N  0.86459630  0.20732786  0.92442052    -0.37900
N1804       N  0.85927685  0.06389192  0.56801505    -0.37900
C1805       C  0.66581640  0.33924819  0.99487600    -0.04500
C1806       C  0.64878664  0.34543275  0.52510548    -0.01600
C1807       C  0.62051082  0.36639006  0.52489073     0.03300
C1808       C  0.61321369  0.38669691  0.99659592    -0.04500
C1809       C  0.63025727  0.38088138  0.96626889    -0.01600
C1810       C  0.65578932  0.35637296  0.96516576     0.03300
C1811       C  0.65932814  0.32898901  0.55611984     0.38000
C1812       C  0.61843923  0.39674651  0.93547148     0.38000
C1813       C  0.67090335  0.34789248  0.93336416     0.36400
C1814       C  0.59621524  0.36280315  0.55143495     0.36400
N1815       N  0.68282199  0.34095314  0.90796193    -0.38400
N1816       N  0.57580809  0.35762177  0.57130794    -0.38400
N1817       N  0.60827632  0.40864419  0.91080598    -0.37900
N1818       N  0.66773244  0.31594869  0.58088059    -0.37900
C1819       C  0.61246118  0.11308803  0.99154198    -0.04500
C1820       C  0.64195147  0.11010830  0.51118847    -0.01600
C1821       C  0.66576821  0.13620251  0.51122984     0.03300
C1822       C  0.66290136  0.16353706  0.98837970    -0.04500
C1823       C  0.63450191  0.16544597  0.96706755    -0.01600
C1824       C  0.60836152  0.14177508  0.97046150     0.03300
C1825       C  0.64780537  0.08061835  0.53215569     0.38000
C1826       C  0.63181272  0.19202935  0.94189236     0.38000
C1827       C  0.57699483  0.14788561  0.95296589     0.36400
C1828       C  0.69253309  0.13550109  0.53593938     0.36400
N1829       N  0.55173604  0.15375918  0.93981791    -0.38400
N1830       N  0.71361212  0.13502008  0.55592121    -0.38400
N1831       N  0.62943272  0.21332056  0.92196234    -0.37900
N1832       N  0.65321025  0.05693656  0.54841104    -0.37900
C1833       C  0.83331214  0.00043356  0.84192315    -0.04500
C1834       C  0.82968673  0.48113116  0.87172896    -0.01600
C1835       C  0.85362500  0.48340114  0.89780401     0.03300
C1836       C  0.88459420  0.49996021  0.89208926    -0.04500
C1837       C  0.88906811  0.01745006  0.86111133    -0.01600
C1838       C  0.86234606  0.02036871  0.83799847     0.03300
C1839       C  0.80255589  0.45722461  0.87505192     0.38000
C1840       C  0.92114467  0.03193705  0.85198370     0.38000
C1841       C  0.86478301  0.04410157  0.81013311     0.36400
C1842       C  0.84612583  0.46815830  0.93020024     0.36400
N1843       N  0.86661147  0.06316762  0.78804772    -0.38400
N1844       N  0.83971683  0.45661914  0.95621262    -0.38400
N1845       N  0.94670802  0.04286381  0.84366974    -0.37900
N1846       N  0.78168162  0.43731801  0.87808022    -0.37900
C1847       C  0.65873216  0.00008705  0.83280130    -0.04500
C1848       C  0.62866732  0.01856837  0.82825411    -0.01600
C1849       C  0.60280016  0.01629728  0.85239241     0.03300
C1850       C  0.60893641  0.50064097  0.88407217    -0.04500
C1851       C  0.64039720  0.48482204  0.88952624    -0.01600
C1852       C  0.66304146  0.48135953  0.86285462     0.03300
C1853       C  0.62428757  0.04036123  0.79907941     0.38000
C1854       C  0.65041568  0.47232460  0.92246796     0.38000
C1855       C  0.68980036  0.45692021  0.86592852     0.36400
C1856       C  0.57019257  0.03037488  0.84426533     0.36400
N1857       N  0.71038074  0.43662212  0.86847846    -0.38400
N1858       N  0.54408708  0.04101710  0.83717587    -0.38400
N1859       N  0.65909699  0.46303089  0.94874380    -0.37900
N1860       N  0.62060836  0.05773651  0.77583506    -0.37900
C1861       C  0.62149255  0.00284312  0.60539488    -0.04500
C1862       C  0.62575635  0.03100935  0.62593669    -0.01600
C1863       C  0.64850295  0.02972818  0.65304771     0.03300
C1864       C  0.66878998  0.00106028  0.65822104    -0.04500
C1865       C  0.66729946  0.47450911  0.63521998    -0.01600
C1866       C  0.64419889  0.47575375  0.60838963     0.03300
C1867       C  0.61001111  0.06251223  0.61631325     0.38000
C1868       C  0.68945047  0.44586085  0.63942363     0.38000
C1869       C  0.64485383  0.44988582  0.58323315     0.36400
C1870       C  0.65137045  0.05805001  0.67530845     0.36400
N1871       N  0.64597989  0.42933023  0.56307549    -0.38400
N1872       N  0.65348906  0.08060985  0.69316189    -0.38400
N1873       N  0.70724551  0.42314571  0.64300182    -0.37900
N1874       N  0.59832374  0.08775594  0.60755513    -0.38900
C1875       C  0.89275060  0.00072686  0.61734485    -0.04500
C1876       C  0.86702998  0.47621614  0.61701794    -0.01600
C1877       C  0.84301937  0.47483701  0.64286057     0.03300
C1878       C  0.84260718  0.99952443  0.66789612    -0.04500
C1879       C  0.86736681  0.02487791  0.66757556    -0.01600
C1880       C  0.89288479  0.02493042  0.64300520     0.03300
C1881       C  0.86504778  0.45213543  0.59015534     0.38000
C1882       C  0.86563105  0.05182264  0.69158359     0.38000
C1883       C  0.91816909  0.05102760  0.64322311     0.36400
C1884       C  0.81868164  0.44779041  0.64383645     0.36400
N1885       N  0.93822699  0.07196136  0.64368056    -0.38400
N1886       N  0.79933923  0.42617421  0.64475131    -0.38400
N1887       N  0.86401083  0.07356215  0.71045435    -0.37900
N1888       N  0.86289509  0.43305031  0.56866615    -0.37900
C1889       C  0.49217912  0.10731271  0.88550200    -0.04500
C1890       C  0.52112830  0.12054282  0.87017311    -0.01600
C1891       C  0.51815427  0.14619588  0.84571700     0.03300
C1892       C  0.48615789  0.15795984  0.83582883    -0.04500
C1893       C  0.95714243  0.14359157  0.85009601    -0.01600
C1894       C  0.96015397  0.11842433  0.87509931     0.03300
C1895       C  0.55394084  0.10776103  0.87964072     0.38000
C1896       C  0.92429292  0.15485750  0.83917681     0.38000
C1897       C  0.93030331  0.10408681  0.89024999     0.36400
C1898       C  0.54805560  0.16075782  0.83090752     0.36400
N1899       N  0.90646111  0.09278504  0.90238328    -0.38400
N1900       N  0.57193818  0.17239220  0.81919009    -0.38400
N1901       N  0.89800475  0.16371298  0.83051485    -0.37900
N1902       N  0.58005760  0.09754715  0.88730746    -0.37900
C1903       C  0.49460612  0.33246142  0.84459085    -0.04500
C1904       C  0.51803962  0.33092802  0.87118893    -0.01600
C1905       C  0.51747358  0.35519985  0.89668987     0.03300
C1906       C  0.49548164  0.38310380  0.89429272    -0.04500
C1907       C  0.97287309  0.38516619  0.86677016    -0.01600
C1908       C  0.97108235  0.35894277  0.84340284     0.03300
C1909       C  0.54326773  0.30466978  0.87185163     0.38000
C1910       C  0.95172566  0.41441471  0.86156717     0.38000
C1911       C  0.94515956  0.35944432  0.81774007     0.36400
C1912       C  0.54031311  0.35161999  0.92484299     0.36400
N1913       N  0.92446036  0.35993944  0.79733458    -0.38400
N1914       N  0.55822355  0.34801914  0.94747937    -0.38400
N1915       N  0.93502664  0.43765600  0.85626515    -0.37900
N1916       N  0.56327940  0.28364282  0.87208632    -0.37900
C1917       C  0.50792549  0.34142854  0.67064449    -0.04500
C1918       C  0.53869578  0.35424939  0.65874212    -0.01600
C1919       C  0.53894416  0.38174706  0.63602877     0.03300
C1920       C  0.50860082  0.39470293  0.62317461    -0.04500
C1921       C  0.97845988  0.38532147  0.63886105    -0.01600
C1922       C  0.97782128  0.35788524  0.66152056     0.03300
C1923       C  0.57000025  0.33949516  0.67012598     0.38000
C1924       C  0.94907700  0.40626472  0.63460713     0.38000
C1925       C  0.94619748  0.34684106  0.67565952     0.36400
C1926       C  0.56995672  0.39920508  0.62927744     0.36400
N1927       N  0.92085178  0.33813232  0.68676209    -0.38400
N1928       N  0.59493447  0.41318900  0.62487749    -0.38400
N1929       N  0.92575647  0.42330385  0.63187951    -0.37900
N1930       N  0.59511594  0.32778827  0.67894686    -0.37900
C1931       C  0.49589578  0.16534794  0.66165916    -0.04500
C1932       C  0.51944817  0.13890687  0.66427021    -0.01600
C1933       C  0.51828111  0.11198893  0.64168849     0.03300
C1934       C  0.49842338  0.11429807  0.61212315    -0.04500
C1935       C  0.97580497  0.14160867  0.60870596    -0.01600
C1936       C  0.97332520  0.16583999  0.63423812     0.03300
C1937       C  0.54471647  0.13897630  0.69057466     0.38000
C1938       C  0.95308914  0.14362238  0.58029947     0.38000
C1939       C  0.94673085  0.19065039  0.63289872     0.36400
C1940       C  0.53536821  0.08105833  0.65089109     0.36400
N1941       N  0.92538813  0.21030677  0.63201760    -0.38400
N1942       N  0.54788468  0.05609979  0.65930449    -0.38400
N1943       N  0.93476041  0.14568700  0.55782000    -0.37900
N1944       N  0.56502940  0.13887225  0.71136876    -0.37900
N1945       N  0.49174367  0.74667655  0.30432873    -0.35800
N1946       N  0.50102751  0.80058956  0.25597634    -0.56400
N1947       N  0.49684525  0.75203303  0.20134837    -0.35800
N1948       N  0.48788906  0.69804694  0.24995698    -0.56400
C1949       C  0.48750606  0.77328182  0.32470652     0.27800
C1950       C  0.48288256  0.71887924  0.32198209     0.27800
C1951       C  0.50593342  0.77987792  0.18371461     0.27800
C1952       C  0.50064705  0.72532362  0.18089788     0.27800
C1953       C  0.50410821  0.81870239  0.28424974     0.36400
C1954       C  0.50731701  0.82178469  0.23004273     0.36400
C1955       C  0.48301546  0.67673789  0.27613635     0.36400
C1956       C  0.48527009  0.67962862  0.22184371     0.36400
C1957       C  0.47566220  0.76210215  0.35559909    -0.21100
C1958       C  0.47330580  0.72775272  0.35406003    -0.21100
C1959       C  0.51485432  0.77093245  0.15148564    -0.21100
C1960       C  0.51205882  0.73658318  0.14986934    -0.21100
C1961       C  0.51345641  0.85135015  0.27619566    -0.22100
C1962       C  0.51490358  0.85344467  0.24189312    -0.22100
C1963       C  0.47654109  0.64473189  0.26469892    -0.22100
C1964       C  0.47719552  0.64669803  0.23034249    -0.22100
C1965       C  0.49571025  0.80716302  0.31695300    -0.17500
C1966       C  0.48369531  0.68555876  0.31031983    -0.17500
C1967       C  0.49339279  0.69113337  0.18896533    -0.17500
C1968       C  0.50694529  0.81320837  0.19572967    -0.17500
H1969       H  0.46982750  0.77705817  0.37727034     0.15400
H1970       H  0.46499546  0.71126226  0.37417310     0.15400
H1971       H  0.52339270  0.78734697  0.13140948     0.15400
H1972       H  0.51776772  0.72164787  0.12815836     0.15400
H1973       H  0.51797147  0.87183500  0.29316653     0.13700
H1974       H  0.52127670  0.87568949  0.22738392     0.13700
H1975       H  0.47135632  0.62238040  0.27953735     0.13700
H1976       H  0.47318536  0.62589983  0.21363407     0.13700
H1977       H  0.50351480  0.74679684  0.28117224     0.27000
H1978       H  0.48592078  0.75186372  0.22490419     0.27000
O1979       O  0.49993481  0.59671687  0.05450971    -0.79300
O1980       O  0.50637496  0.90786758  0.06444090    -0.80900
O1981       O  0.94991119  0.50211731  0.09900645    -0.77900
O1982       O  0.56319499  0.50367488  0.09221470    -0.76300
O1983       O  0.60142519  0.00000193  0.04963732    -0.78100
O1984       O  0.90790038  0.00036532  0.05976499    -0.79000
O1985       O  0.50798583  0.95039478  0.10258656    -0.80300
O1986       O  0.50198319  0.55691555  0.09618922    -0.80600
Eu1987     Eu  0.50478939  0.00204731  0.06974300     2.39200
O1988       O  0.53743362  0.96690348  0.03581417    -0.88100
O1989       O  0.96848488  0.53407430  0.03555949    -0.91700
C1990       C  0.50022762  0.58765088  0.08586923     1.03000
C1991       C  0.50806451  0.91922367  0.09481304     1.02800
C1992       C  0.91861584  0.50131553  0.09032927     1.02700
C1993       C  0.59354079  0.50206296  0.08079530     1.00600
H1994       H  0.95584410  0.95264273  0.05404617     0.30300
O1995       O  0.96912334  0.96630523  0.03889967    -1.00500
H1996       H  0.55186499  0.54967812  0.04570607     0.30400
O1997       O  0.53735600  0.53516499  0.03300717    -1.03100
O1998       O  0.49830978  0.90174101  0.45121549    -0.80300
O1999       O  0.49729913  0.59295522  0.44293545    -0.79800
O2000       O  0.90744791  0.94223461  0.50300597    -0.78300
O2001       O  0.59639168  0.94397846  0.49608939    -0.81600
O2002       O  0.59554569  0.55563223  0.49354154    -0.79500
O2003       O  0.90606306  0.55467793  0.50188379    -0.78100
O2004       O  0.94249797  0.99667834  0.40763200    -0.79600
O2005       O  0.55181719  0.99786117  0.40295412    -0.81500
O2006       O  0.90373459  0.00009488  0.44932080    -0.78300
O2007       O  0.59350522  0.00221875  0.44176716    -0.81000
O2008       O  0.94828845  0.90185048  0.50692868    -0.76700
O2009       O  0.94625253  0.59553472  0.49970795    -0.76700
O2010       O  0.55524767  0.59627925  0.49584270    -0.76400
O2011       O  0.55656469  0.90299172  0.50257106    -0.79900
O2012       O  0.49672928  0.94095254  0.40874274    -0.79300
O2013       O  0.49561912  0.55104323  0.40406618    -0.77600
Eu2014     Eu  0.50215189  0.93095428  0.50566123     2.39800
Eu2015     Eu  0.50089059  0.56778647  0.49953834     2.39600
Eu2016     Eu  0.93336074  0.99885393  0.50390310     2.38400
Eu2017     Eu  0.56904349  0.99983517  0.49790059     2.39900
Eu2018     Eu  0.49833317  0.99695033  0.43375770     2.39800
O2019       O  0.53304527  0.53292453  0.46469878    -0.92000
O2020       O  0.96648174  0.96364126  0.47092629    -0.90900
C2021       C  0.49680823  0.91033209  0.41978071     1.03100
C2022       C  0.49537167  0.58209283  0.41263101     1.01800
C2023       C  0.91752459  0.91134383  0.50450261     1.01200
C2024       C  0.58700360  0.91294664  0.49850824     1.03300
C2025       C  0.58600722  0.58663929  0.49362554     1.02200
C2026       C  0.91549310  0.58575205  0.50038659     1.01000
C2027       C  0.91200700  0.99878857  0.41802613     1.01100
C2028       C  0.58301029  0.00041233  0.41124449     1.03700
H2029       H  0.95153528  0.54571687  0.45391617     0.31100
O2030       O  0.96612549  0.53219413  0.46788746    -1.04200
H2031       H  0.54724440  0.94963260  0.45332457     0.33100
O2032       O  0.53398226  0.96384368  0.46760575    -1.06800
N2033       N  0.74748034  0.49882701  0.30117325    -0.35800
N2034       N  0.80182674  0.49911371  0.25310508    -0.56400
N2035       N  0.75369531  0.49887558  0.19911393    -0.35800
N2036       N  0.69916213  0.50014351  0.24720193    -0.56400
C2037       C  0.77393877  0.50785050  0.32036995     0.27800
C2038       C  0.71930721  0.50905891  0.31684086     0.27800
C2039       C  0.78196813  0.50689269  0.18219717     0.27800
C2040       C  0.72748351  0.50691482  0.17902273     0.27800
C2041       C  0.81839659  0.49020763  0.28145993     0.36400
C2042       C  0.82221947  0.49181317  0.22720952     0.36400
C2043       C  0.67902405  0.49208273  0.27325486     0.36400
C2044       C  0.68222320  0.49233492  0.21901874     0.36400
C2045       C  0.76252784  0.52446119  0.34845684    -0.21100
C2046       C  0.72800983  0.52529139  0.34620063    -0.21100
C2047       C  0.77361868  0.52001759  0.15084814    -0.21100
C2048       C  0.73916898  0.51995867  0.14881292    -0.21100
C2049       C  0.84934988  0.47667285  0.27347012    -0.22100
C2050       C  0.85192147  0.47809260  0.23904206    -0.22100
C2051       C  0.64931058  0.47842529  0.26155913    -0.22100
C2052       C  0.65114550  0.47909201  0.22705908    -0.22100
C2053       C  0.80768922  0.49883005  0.31408404    -0.17500
C2054       C  0.68620787  0.50054623  0.30687068    -0.17500
C2055       C  0.69356108  0.49992782  0.18631591    -0.17500
C2056       C  0.81492244  0.49963611  0.19329517    -0.17500
H2057       H  0.77745702  0.53429713  0.36879027     0.15400
H2058       H  0.71119969  0.53578073  0.36454452     0.15400
H2059       H  0.79058907  0.52807422  0.13120525     0.15400
H2060       H  0.72443117  0.52796832  0.12730057     0.15400
H2061       H  0.86856743  0.46790617  0.29069750     0.13700
H2062       H  0.87328393  0.47030968  0.22442681     0.13700
H2063       H  0.62811501  0.46996129  0.27626059     0.13700
H2064       H  0.63175964  0.47113276  0.20986483     0.13700
H2065       H  0.74842975  0.48266400  0.28087929     0.27000
H2066       H  0.75236246  0.48483165  0.22127063     0.27000
N2067       N  0.75263711  0.80130917  0.49501255    -0.35800
N2068       N  0.80299288  0.74859331  0.49498889    -0.56400
N2069       N  0.75015931  0.69861447  0.49220660    -0.35800
N2070       N  0.69970535  0.75114486  0.48986847    -0.56400
C2071       C  0.78054437  0.82046925  0.49257549     0.27800
C2072       C  0.72585307  0.82182246  0.49103118     0.27800
C2073       C  0.77738548  0.67982903  0.48506421     0.27800
C2074       C  0.72291053  0.68149255  0.48165305     0.27800
C2075       C  0.82331794  0.77502311  0.50075893     0.36400
C2076       C  0.82126917  0.72065698  0.50134330     0.36400
C2077       C  0.68068998  0.77842016  0.49605363     0.36400
C2078       C  0.67982990  0.72404482  0.49481114     0.36400
C2079       C  0.77126283  0.85375477  0.48759732    -0.21100
C2080       C  0.73686956  0.85459706  0.48663628    -0.21100
C2081       C  0.76739308  0.65044954  0.46974523    -0.21100
C2082       C  0.73297303  0.65155575  0.46746211    -0.21100
C2083       C  0.85493859  0.76368728  0.51003827    -0.22100
C2084       C  0.85334648  0.72936939  0.51138247    -0.22100
C2085       C  0.64832947  0.76849085  0.50408076    -0.22100
C2086       C  0.64808862  0.73413423  0.50429274    -0.22100
C2087       C  0.81403858  0.80924104  0.49704997    -0.17500
C2088       C  0.69176693  0.81220309  0.49373311    -0.17500
C2089       C  0.68923024  0.69060282  0.48792945    -0.17500
C2090       C  0.81073930  0.68762742  0.49412224    -0.17500
H2091       H  0.78745968  0.87545954  0.48568976     0.15400
H2092       H  0.72176996  0.87702208  0.48381913     0.15400
H2093       H  0.78323188  0.63012824  0.46152390     0.15400
H2094       H  0.71707440  0.63213838  0.45733698     0.15400
H2095       H  0.87701211  0.77841184  0.51540666     0.13700
H2096       H  0.87393952  0.71276817  0.51774642     0.13700
H2097       H  0.62694662  0.78413505  0.50948531     0.13700
H2098       H  0.62662689  0.71848678  0.50989817     0.13700
H2099       H  0.75175733  0.77633160  0.50233067     0.27000
H2100       H  0.74991492  0.71952458  0.50753192     0.27000
C2101       C  0.89185672  0.88457753  0.50237877    -0.04500
C2102       C  0.88381392  0.86476930  0.03077767    -0.01600
C2103       C  0.85698023  0.84192831  0.02962774     0.03300
C2104       C  0.84108156  0.83520579  0.49875903    -0.04500
C2105       C  0.85160200  0.85247670  0.46939513    -0.01600
C2106       C  0.87634136  0.87766873  0.47139788     0.03300
C2107       C  0.90507441  0.86527093  0.06011231     0.38000
C2108       C  0.83714926  0.84412810  0.43713547     0.38000
C2109       C  0.88759932  0.89483107  0.44121900     0.36400
C2110       C  0.84626626  0.82470685  0.06009198     0.36400
N2111       N  0.89680409  0.90844602  0.41715976    -0.38400
N2112       N  0.83778219  0.81078164  0.08428405    -0.38400
N2113       N  0.82563398  0.83746916  0.41138781    -0.37900
N2114       N  0.92267356  0.86381228  0.08312504    -0.37900
C2115       C  0.88892741  0.61212127  0.49912593    -0.04500
C2116       C  0.86107269  0.61000661  0.02092371    -0.01600
C2117       C  0.83557868  0.63455781  0.01929040     0.03300
C2118       C  0.83655414  0.66025062  0.49451458    -0.04500
C2119       C  0.86392309  0.66186770  0.47221662    -0.01600
C2120       C  0.89114377  0.63966809  0.47630789     0.03300
C2121       C  0.86000742  0.58426395  0.04703751     0.38000
C2122       C  0.86442162  0.68709833  0.44554440     0.38000
C2123       C  0.92211054  0.64717727  0.45886833     0.36400
C2124       C  0.80915605  0.63424857  0.04414122     0.36400
N2125       N  0.94697467  0.65443533  0.44581035    -0.38400
N2126       N  0.78836123  0.63406061  0.06427821    -0.38400
N2127       N  0.86460026  0.70733844  0.42442451    -0.37900
N2128       N  0.85927461  0.56388814  0.06800518    -0.37900
C2129       C  0.66582081  0.83925254  0.49486452    -0.04500
C2130       C  0.64878724  0.84543185  0.02509268    -0.01600
C2131       C  0.62050945  0.86638585  0.02487674     0.03300
C2132       C  0.61321665  0.88669896  0.49658573    -0.04500
C2133       C  0.63026405  0.88088920  0.46625956    -0.01600
C2134       C  0.65579682  0.85638145  0.46515542     0.03300
C2135       C  0.65932297  0.82898166  0.05610570     0.38000
C2136       C  0.61844671  0.89675598  0.43546279     0.38000
C2137       C  0.67091294  0.84790361  0.43335390     0.36400
C2138       C  0.59620013  0.86277646  0.05140524     0.36400
N2139       N  0.68283345  0.84096467  0.40795239    -0.38400
N2140       N  0.57578009  0.85757413  0.07125981    -0.38400
N2141       N  0.60828493  0.90865399  0.41079697    -0.37900
N2142       N  0.66772155  0.81593590  0.08086558    -0.37900
C2143       C  0.61245761  0.61309107  0.49153878    -0.04500
C2144       C  0.64194850  0.61011345  0.01118457    -0.01600
C2145       C  0.66576448  0.63620845  0.01122399     0.03300
C2146       C  0.66289836  0.66353969  0.48836974    -0.04500
C2147       C  0.63449859  0.66544607  0.46705764    -0.01600
C2148       C  0.60835724  0.64177650  0.47045584     0.03300
C2149       C  0.64780377  0.58062444  0.03215266     0.38000
C2150       C  0.63180980  0.69202615  0.44187896     0.38000
C2151       C  0.57698952  0.64788687  0.45296153     0.36400
C2152       C  0.69252761  0.63551096  0.03593569     0.36400
N2153       N  0.55173070  0.65376134  0.43981386    -0.38400
N2154       N  0.71360461  0.63503188  0.05591973    -0.38400
N2155       N  0.62943049  0.71331517  0.42194652    -0.37900
N2156       N  0.65320831  0.55694273  0.04840823    -0.37900
C2157       C  0.83331572  0.50042584  0.34191217    -0.04500
C2158       C  0.82968616  0.98113095  0.37173549    -0.01600
C2159       C  0.85362959  0.98339064  0.39780730     0.03300
C2160       C  0.88459588  0.99995591  0.39209465    -0.04500
C2161       C  0.88907112  0.51744421  0.36110053    -0.01600
C2162       C  0.86235128  0.52035807  0.33798420     0.03300
C2163       C  0.80255195  0.95722804  0.37505712     0.38000
C2164       C  0.92114915  0.53192768  0.35197219     0.38000
C2165       C  0.86479149  0.54408486  0.31011388     0.36400
C2166       C  0.84613821  0.96813282  0.43019861     0.36400
N2167       N  0.86662335  0.56314722  0.28802561    -0.38400
N2168       N  0.83973344  0.95658297  0.45620745    -0.38400
N2169       N  0.94671359  0.54285232  0.34365873    -0.37900
N2170       N  0.78167470  0.93732445  0.37808454    -0.37900
C2171       C  0.65873553  0.50007996  0.33280425    -0.04500
C2172       C  0.62867019  0.51856030  0.32825680    -0.01600
C2173       C  0.60280222  0.51628768  0.35239381     0.03300
C2174       C  0.60893520  0.00065071  0.38407099    -0.04500
C2175       C  0.64039546  0.98483117  0.38952401    -0.01600
C2176       C  0.66303788  0.98136668  0.36285171     0.03300
C2177       C  0.62429109  0.54035454  0.29908317     0.38000
C2178       C  0.65041648  0.97233649  0.42246582     0.38000
C2179       C  0.68979505  0.95692567  0.36592511     0.36400
C2180       C  0.57019458  0.53036493  0.34426587     0.36400
N2181       N  0.71037407  0.93662615  0.36847389    -0.38400
N2182       N  0.54408923  0.54100713  0.33717580    -0.38400
N2183       N  0.65910051  0.96304558  0.44874167    -0.37900
N2184       N  0.62061304  0.55773115  0.27583966    -0.37900
C2185       C  0.62148733  0.50284455  0.10539460    -0.04500
C2186       C  0.62575369  0.53101105  0.12593529    -0.01600
C2187       C  0.64849797  0.52972749  0.15304810     0.03300
C2188       C  0.66877994  0.50105653  0.15822401    -0.04500
C2189       C  0.66731231  0.97451324  0.13521575    -0.01600
C2190       C  0.64420933  0.97575559  0.10838685     0.03300
C2191       C  0.61001383  0.56251566  0.11630894     0.38000
C2192       C  0.68946621  0.94586672  0.13941822     0.38000
C2193       C  0.64486895  0.94989128  0.08322664     0.36400
C2194       C  0.65137086  0.55805103  0.17530590     0.36400
N2195       N  0.64599791  0.92933975  0.06306480    -0.38400
N2196       N  0.65349455  0.58061288  0.19315622    -0.38400
N2197       N  0.70726226  0.92315220  0.14299578    -0.37900
N2198       N  0.59833027  0.58776032  0.10754839    -0.38900
C2199       C  0.89274549  0.50071360  0.11733850    -0.04500
C2200       C  0.86703522  0.97622938  0.11702737    -0.01600
C2201       C  0.84302775  0.97484968  0.14287267     0.03300
C2202       C  0.84259843  0.49950960  0.16788601    -0.04500
C2203       C  0.86735801  0.52486297  0.16756791    -0.01600
C2204       C  0.89287722  0.52491698  0.14299899     0.03300
C2205       C  0.86504690  0.95215189  0.09016276     0.38000
C2206       C  0.86562039  0.55180633  0.19157715     0.38000
C2207       C  0.91815939  0.55101643  0.14321781     0.36400
C2208       C  0.81869176  0.94780131  0.14385204     0.36400
N2209       N  0.93821476  0.57195268  0.14367582    -0.38400
N2210       N  0.79935099  0.92618365  0.14476870    -0.38400
N2211       N  0.86399763  0.57354419  0.21044950    -0.37900
N2212       N  0.86288608  0.93307138  0.06867035    -0.37900
C2213       C  0.49218556  0.60730980  0.38549516    -0.04500
C2214       C  0.52113538  0.62054137  0.37016815    -0.01600
C2215       C  0.51816182  0.64619514  0.34571248     0.03300
C2216       C  0.48616538  0.65796037  0.33582570    -0.04500
C2217       C  0.95714964  0.64358955  0.35008947    -0.01600
C2218       C  0.96016080  0.61842050  0.37509073     0.03300
C2219       C  0.55394778  0.60775972  0.37963631     0.38000
C2220       C  0.92430002  0.65485681  0.33917174     0.38000
C2221       C  0.93031015  0.60407935  0.39023786     0.36400
C2222       C  0.54806323  0.66075613  0.33090151     0.36400
N2223       N  0.90646916  0.59277275  0.40236901    -0.38400
N2224       N  0.57194536  0.67238992  0.31918243    -0.38400
N2225       N  0.89801109  0.66371389  0.33051376    -0.37900
N2226       N  0.58006463  0.59754598  0.38730289    -0.37900
C2227       C  0.49462374  0.83246421  0.34458502    -0.04500
C2228       C  0.51805248  0.83093144  0.37118711    -0.01600
C2229       C  0.51748110  0.85520404  0.39668709     0.03300
C2230       C  0.49548897  0.88310766  0.39428618    -0.04500
C2231       C  0.97288643  0.88517018  0.36675876    -0.01600
C2232       C  0.97110145  0.85894685  0.34339088     0.03300
C2233       C  0.54328292  0.80467513  0.37185348     0.38000
C2234       C  0.95173733  0.91441734  0.36155374     0.38000
C2235       C  0.94518303  0.85944820  0.31772387     0.36400
C2236       C  0.54031674  0.85162568  0.42484296     0.36400
N2237       N  0.92448584  0.85994453  0.29731640    -0.38400
N2238       N  0.55822492  0.84802520  0.44748106    -0.38400
N2239       N  0.93503685  0.93765777  0.35625241    -0.37900
N2240       N  0.56329755  0.78365091  0.37208968    -0.37900
C2241       C  0.50792711  0.84142792  0.17064097    -0.04500
C2242       C  0.53869836  0.85422229  0.15871354    -0.01600
C2243       C  0.53895112  0.88171952  0.13600030     0.03300
C2244       C  0.50860898  0.89469867  0.12316736    -0.04500
C2245       C  0.97847159  0.88534163  0.13887514    -0.01600
C2246       C  0.97782923  0.85791011  0.16154062     0.03300
C2247       C  0.57000018  0.83943880  0.17006750     0.38000
C2248       C  0.94909850  0.90630156  0.13463119     0.38000
C2249       C  0.94620814  0.84689594  0.17570797     0.36400
C2250       C  0.56997173  0.89915446  0.12922865     0.36400
N2251       N  0.92086384  0.83821237  0.18683306    -0.38400
N2252       N  0.59495739  0.91311863  0.12481134    -0.38400
N2253       N  0.92578667  0.92335386  0.13191027    -0.37900
N2254       N  0.59511404  0.82770750  0.17886094    -0.37900
C2255       C  0.49589013  0.66534558  0.16165785    -0.04500
C2256       C  0.51944453  0.63890604  0.16426582    -0.01600
C2257       C  0.51827720  0.61198877  0.14168344     0.03300
C2258       C  0.49841593  0.61429711  0.11212040    -0.04500
C2259       C  0.97579536  0.64160626  0.10870597    -0.01600
C2260       C  0.97331561  0.66583574  0.13423994     0.03300
C2261       C  0.54471600  0.63897632  0.19056718     0.38000
C2262       C  0.95307549  0.64361839  0.08030253     0.38000
C2263       C  0.94671687  0.69064155  0.13290682     0.36400
C2264       C  0.53536895  0.58105978  0.15088294     0.36400
N2265       N  0.92537089  0.71029453  0.13203198    -0.38400
N2266       N  0.54788928  0.55610274  0.15929492    -0.38400
N2267       N  0.93474196  0.64568125  0.05782681    -0.37900
N2268       N  0.56503219  0.63887194  0.21135809    -0.37900
N2269       N  0.49174366  0.74667656  0.80432864    -0.35800
N2270       N  0.50102742  0.80058960  0.75597630    -0.56400
N2271       N  0.49684539  0.75203306  0.70134841    -0.35800
N2272       N  0.48788897  0.69804697  0.74995694    -0.56400
C2273       C  0.48750603  0.77328181  0.82470656     0.27800
C2274       C  0.48288258  0.71887921  0.82198207     0.27800
C2275       C  0.50593355  0.77987794  0.68371462     0.27800
C2276       C  0.50064709  0.72532367  0.68089786     0.27800
C2277       C  0.50410815  0.81870239  0.78424971     0.36400
C2278       C  0.50731707  0.82178469  0.73004271     0.36400
C2279       C  0.48301549  0.67673789  0.77613630     0.36400
C2280       C  0.48527003  0.67962865  0.72184365     0.36400
C2281       C  0.47566226  0.76210209  0.85559918    -0.21100
C2282       C  0.47330590  0.72775263  0.85406005    -0.21100
C2283       C  0.51485438  0.77093250  0.65148565    -0.21100
C2284       C  0.51205879  0.73658324  0.64986930    -0.21100
C2285       C  0.51345645  0.85135010  0.77619563    -0.22100
C2286       C  0.51490370  0.85344460  0.74189313    -0.22100
C2287       C  0.47654123  0.64473188  0.76469887    -0.22100
C2288       C  0.47719559  0.64669804  0.73034242    -0.22100
C2289       C  0.49571026  0.80716300  0.81695299    -0.17500
C2290       C  0.48369531  0.68555876  0.81031978    -0.17500
C2291       C  0.49339275  0.69113343  0.68896528    -0.17500
C2292       C  0.50694536  0.81320838  0.69572967    -0.17500
H2293       H  0.46982763  0.77705805  0.87727048     0.15400
H2294       H  0.46499560  0.71126208  0.87417307     0.15400
H2295       H  0.52339277  0.78734704  0.63140952     0.15400
H2296       H  0.51776758  0.72164796  0.62815829     0.15400
H2297       H  0.51797157  0.87183498  0.79316644     0.13700
H2298       H  0.52127689  0.87568944  0.72738399     0.13700
H2299       H  0.47135651  0.62238038  0.77953731     0.13700
H2300       H  0.47318549  0.62589983  0.71363400     0.13700
H2301       H  0.50351476  0.74679689  0.78117218     0.27000
H2302       H  0.48592093  0.75186374  0.72490422     0.27000
O2303       O  0.49993471  0.59671688  0.55450967    -0.79300
O2304       O  0.50637505  0.90786761  0.56444096    -0.80900
O2305       O  0.94991113  0.50211736  0.59900640    -0.77900
O2306       O  0.56319498  0.50367497  0.59221462    -0.76300
O2307       O  0.60142510  0.00000198  0.54963729    -0.78100
O2308       O  0.90790036  0.00036531  0.55976496    -0.79000
O2309       O  0.50798593  0.95039480  0.60258665    -0.80300
O2310       O  0.50198308  0.55691557  0.59618920    -0.80600
Eu2311     Eu  0.50478937  0.00204733  0.56974303     2.39200
O2312       O  0.53743355  0.96690349  0.53581419    -0.88100
O2313       O  0.96848480  0.53407434  0.53555945    -0.91700
C2314       C  0.50022752  0.58765090  0.58586919     1.03000
C2315       C  0.50806459  0.91922369  0.59481310     1.02800
C2316       C  0.91861577  0.50131558  0.59032926     1.02700
C2317       C  0.59354079  0.50206309  0.58079525     1.00600
H2318       H  0.95584413  0.95264274  0.55404611     0.30300
O2319       O  0.96912335  0.96630527  0.53889963    -1.00500
H2320       H  0.55186482  0.54967820  0.54570617     0.30400
O2321       O  0.53735593  0.53516505  0.53300720    -1.03100
O2322       O  0.49830989  0.90174093  0.95121553    -0.80300
O2323       O  0.49729909  0.59295525  0.94293551    -0.79800
O2324       O  0.90744791  0.94223468  0.00300589    -0.78300
O2325       O  0.59639165  0.94397847  0.99608928    -0.81600
O2326       O  0.59554557  0.55563224  0.99354163    -0.79500
O2327       O  0.90606316  0.55467794  0.00188392    -0.78100
O2328       O  0.94249802  0.99667836  0.90763192    -0.79600
O2329       O  0.55181716  0.99786118  0.90295408    -0.81500
O2330       O  0.90373469  0.00009490  0.94932076    -0.78300
O2331       O  0.59350516  0.00221876  0.94176714    -0.81000
O2332       O  0.94828845  0.90185056  0.00692861    -0.76700
O2333       O  0.94625262  0.59553473  0.99970790    -0.76700
O2334       O  0.55524759  0.59627930  0.99584258    -0.76400
O2335       O  0.55656472  0.90299167  0.00257094    -0.79900
O2336       O  0.49672919  0.94095251  0.90874284    -0.79300
O2337       O  0.49561905  0.55104328  0.90406623    -0.77600
Eu2338     Eu  0.50215197  0.93095429  0.00566119     2.39800
Eu2339     Eu  0.50089061  0.56778646  0.99953841     2.39600
Eu2340     Eu  0.93336078  0.99885399  0.00390314     2.38400
Eu2341     Eu  0.56904354  0.99983519  0.99790062     2.39900
Eu2342     Eu  0.49833320  0.99695036  0.93375772     2.39800
O2343       O  0.53304519  0.53292447  0.96469883    -0.92000
O2344       O  0.96648178  0.96364133  0.97092638    -0.90900
C2345       C  0.49680820  0.91033205  0.91978077     1.03100
C2346       C  0.49537163  0.58209287  0.91263106     1.01800
C2347       C  0.91752459  0.91134390  0.00450254     1.01200
C2348       C  0.58700362  0.91294663  0.99850812     1.03300
C2349       C  0.58600713  0.58663931  0.99362552     1.02200
C2350       C  0.91549319  0.58575206  0.00038667     1.01000
C2351       C  0.91200707  0.99878859  0.91802608     1.01100
C2352       C  0.58301023  0.00041235  0.91124448     1.03700
H2353       H  0.95153525  0.54571690  0.95391624     0.31100
O2354       O  0.96612552  0.53219416  0.96788746    -1.04200
H2355       H  0.54724437  0.94963265  0.95332447     0.33100
O2356       O  0.53398231  0.96384373  0.96760574    -1.06800
N2357       N  0.74748031  0.49882707  0.80117323    -0.35800
N2358       N  0.80182670  0.49911374  0.75310509    -0.56400
N2359       N  0.75369533  0.49887588  0.69911394    -0.35800
N2360       N  0.69916217  0.50014357  0.74720188    -0.56400
C2361       C  0.77393870  0.50785055  0.82036997     0.27800
C2362       C  0.71930717  0.50905895  0.81684083     0.27800
C2363       C  0.78196816  0.50689288  0.68219724     0.27800
C2364       C  0.72748354  0.50691506  0.67902281     0.27800
C2365       C  0.81839650  0.49020767  0.78145996     0.36400
C2366       C  0.82221943  0.49181321  0.72720954     0.36400
C2367       C  0.67902400  0.49208288  0.77325481     0.36400
C2368       C  0.68222324  0.49233492  0.71901869     0.36400
C2369       C  0.76252776  0.52446117  0.84845686    -0.21100
C2370       C  0.72800976  0.52529138  0.84620060    -0.21100
C2371       C  0.77361874  0.52001777  0.65084821    -0.21100
C2372       C  0.73916904  0.51995891  0.64881306    -0.21100
C2373       C  0.84934974  0.47667287  0.77347012    -0.22100
C2374       C  0.85192137  0.47809262  0.73904210    -0.22100
C2375       C  0.64931042  0.47842542  0.76155914    -0.22100
C2376       C  0.65114545  0.47909203  0.72705901    -0.22100
C2377       C  0.80768917  0.49883015  0.81408407    -0.17500
C2378       C  0.68620783  0.50054632  0.80687064    -0.17500
C2379       C  0.69356113  0.49992793  0.68631589    -0.17500
C2380       C  0.81492244  0.49963617  0.69329518    -0.17500
H2381       H  0.77745692  0.53429711  0.86879031     0.15400
H2382       H  0.71119958  0.53578073  0.86454447     0.15400
H2383       H  0.79058909  0.52807430  0.63120527     0.15400
H2384       H  0.72443124  0.52796856  0.62730072     0.15400
H2385       H  0.86856730  0.46790619  0.79069750     0.13700
H2386       H  0.87328386  0.47030967  0.72442688     0.13700
H2387       H  0.62811489  0.46996148  0.77626068     0.13700
H2388       H  0.63175965  0.47113281  0.70986468     0.13700
H2389       H  0.74842976  0.48266405  0.78087927     0.27000
H2390       H  0.75236248  0.48483184  0.72127064     0.27000
N2391       N  0.75263710  0.80130918  0.99501244    -0.35800
N2392       N  0.80299285  0.74859335  0.99498894    -0.56400
N2393       N  0.75015926  0.69861442  0.99220671    -0.35800
N2394       N  0.69970538  0.75114488  0.98986837    -0.56400
C2395       C  0.78054435  0.82046927  0.99257543     0.27800
C2396       C  0.72585307  0.82182248  0.99103106     0.27800
C2397       C  0.77738546  0.67982904  0.98506428     0.27800
C2398       C  0.72291051  0.68149253  0.98165309     0.27800
C2399       C  0.82331790  0.77502314  0.00075904     0.36400
C2400       C  0.82126913  0.72065701  0.00134333     0.36400
C2401       C  0.68069001  0.77842018  0.99605351     0.36400
C2402       C  0.67982987  0.72404484  0.99481106     0.36400
C2403       C  0.77126280  0.85375477  0.98759724    -0.21100
C2404       C  0.73686956  0.85459707  0.98663617    -0.21100
C2405       C  0.76739311  0.65044962  0.96974520    -0.21100
C2406       C  0.73297307  0.65155580  0.96746209    -0.21100
C2407       C  0.85493856  0.76368730  0.01003839    -0.22100
C2408       C  0.85334641  0.72936940  0.01138255    -0.22100
C2409       C  0.64832945  0.76849089  0.00408063    -0.22100
C2410       C  0.64808851  0.73413420  0.00429267    -0.22100
C2411       C  0.81403853  0.80924108  0.99705006    -0.17500
C2412       C  0.69176695  0.81220311  0.99373304    -0.17500
C2413       C  0.68923023  0.69060282  0.98792943    -0.17500
C2414       C  0.81073929  0.68762744  0.99412226    -0.17500
H2415       H  0.78745962  0.87545958  0.98568976     0.15400
H2416       H  0.72177002  0.87702212  0.98381905     0.15400
H2417       H  0.78323194  0.63012838  0.96152378     0.15400
H2418       H  0.71707448  0.63213843  0.95733688     0.15400
H2419       H  0.87701210  0.77841185  0.01540678     0.13700
H2420       H  0.87393941  0.71276814  0.01774653     0.13700
H2421       H  0.62694667  0.78413519  0.00948514     0.13700
H2422       H  0.62662682  0.71848674  0.00989812     0.13700
H2423       H  0.75175734  0.77633163  0.00233060     0.27000
H2424       H  0.74991483  0.71952454  0.00753205     0.27000
C2425       C  0.89185672  0.88457753  0.00237873    -0.04500
C2426       C  0.88381383  0.86476938  0.53077771    -0.01600
C2427       C  0.85698021  0.84192832  0.52962770     0.03300
C2428       C  0.84108149  0.83520584  0.99875910    -0.04500
C2429       C  0.85160187  0.85247676  0.96939519    -0.01600
C2430       C  0.87634127  0.87766876  0.97139788     0.03300
C2431       C  0.90507421  0.86527113  0.56011244     0.38000
C2432       C  0.83714919  0.84412805  0.93713552     0.38000
C2433       C  0.88759920  0.89483108  0.94121895     0.36400
C2434       C  0.84626624  0.82470686  0.56009192     0.36400
N2435       N  0.89680395  0.90844601  0.91715969    -0.38400
N2436       N  0.83778225  0.81078162  0.58428400    -0.38400
N2437       N  0.82563410  0.83746898  0.91138781    -0.37900
N2438       N  0.92267325  0.86381256  0.58312525    -0.37900
C2439       C  0.88892750  0.61212132  0.99912608    -0.04500
C2440       C  0.86107263  0.61000655  0.52092358    -0.01600
C2441       C  0.83557866  0.63455778  0.51929037     0.03300
C2442       C  0.83655415  0.66025063  0.99451460    -0.04500
C2443       C  0.86392315  0.66186774  0.97221667    -0.01600
C2444       C  0.89114384  0.63966813  0.97630802     0.03300
C2445       C  0.86000744  0.58426393  0.54703741     0.38000
C2446       C  0.86442168  0.68709840  0.94554444     0.38000
C2447       C  0.92211060  0.64717729  0.95886846     0.36400
C2448       C  0.80915606  0.63424857  0.54414123     0.36400
N2449       N  0.94697469  0.65443537  0.94581042    -0.38400
N2450       N  0.78836124  0.63406063  0.56427822    -0.38400
N2451       N  0.86460018  0.70733862  0.92442465    -0.37900
N2452       N  0.85927474  0.56388814  0.56800511    -0.37900
C2453       C  0.66582084  0.83925254  0.99486449    -0.04500
C2454       C  0.64878719  0.84543180  0.52509269    -0.01600
C2455       C  0.62050935  0.86638573  0.52487674     0.03300
C2456       C  0.61321673  0.88669902  0.99658567    -0.04500
C2457       C  0.63026414  0.88088924  0.96625951    -0.01600
C2458       C  0.65579690  0.85638148  0.96515540     0.03300
C2459       C  0.65932291  0.82898165  0.55610571     0.38000
C2460       C  0.61844677  0.89675598  0.93546274     0.38000
C2461       C  0.67091300  0.84790363  0.93335388     0.36400
C2462       C  0.59620006  0.86277634  0.55140525     0.36400
N2463       N  0.68283337  0.84096469  0.90795231    -0.38400
N2464       N  0.57577997  0.85757410  0.57125977    -0.38400
N2465       N  0.60828482  0.90865403  0.91079701    -0.37900
N2466       N  0.66772145  0.81593588  0.58086559    -0.37900
C2467       C  0.61245753  0.61309109  0.99153877    -0.04500
C2468       C  0.64194862  0.61011340  0.51118454    -0.01600
C2469       C  0.66576458  0.63620841  0.51122392     0.03300
C2470       C  0.66289831  0.66353971  0.98836976    -0.04500
C2471       C  0.63449857  0.66544607  0.96705762    -0.01600
C2472       C  0.60835722  0.64177648  0.97045576     0.03300
C2473       C  0.64780383  0.58062441  0.53215271     0.38000
C2474       C  0.63180981  0.69202610  0.94187889     0.38000
C2475       C  0.57698952  0.64788686  0.95296148     0.36400
C2476       C  0.69252772  0.63551095  0.53593559     0.36400
N2477       N  0.55173064  0.65376135  0.93981396    -0.38400
N2478       N  0.71360474  0.63503190  0.55591962    -0.38400
N2479       N  0.62943057  0.71331504  0.92194635    -0.37900
N2480       N  0.65320821  0.55694267  0.54840829    -0.37900
C2481       C  0.83331565  0.50042598  0.84191224    -0.04500
C2482       C  0.82968614  0.98113103  0.87173556    -0.01600
C2483       C  0.85362963  0.98339069  0.89780730     0.03300
C2484       C  0.88459592  0.99995592  0.89209463    -0.04500
C2485       C  0.88907117  0.51744412  0.86110049    -0.01600
C2486       C  0.86235129  0.52035811  0.83798424     0.03300
C2487       C  0.80255185  0.95722824  0.87505731     0.38000
C2488       C  0.92114921  0.53192756  0.85197210     0.38000
C2489       C  0.86479157  0.54408483  0.81011388     0.36400
C2490       C  0.84613831  0.96813284  0.93019859     0.36400
N2491       N  0.86662348  0.56314705  0.78802550    -0.38400
N2492       N  0.83973356  0.95658295  0.95620741    -0.38400
N2493       N  0.94671359  0.54285232  0.84365859    -0.37900
N2494       N  0.78167455  0.93732473  0.87808490    -0.37900
C2495       C  0.65873549  0.50008002  0.83280421    -0.04500
C2496       C  0.62867015  0.51856040  0.82825679    -0.01600
C2497       C  0.60280214  0.51628770  0.85239377     0.03300
C2498       C  0.60893516  0.00065075  0.88407097    -0.04500
C2499       C  0.64039541  0.98483123  0.88952399    -0.01600
C2500       C  0.66303783  0.98136677  0.86285168     0.03300
C2501       C  0.62429107  0.54035467  0.79908317     0.38000
C2502       C  0.65041640  0.97233644  0.92246576     0.38000
C2503       C  0.68979495  0.95692571  0.86592501     0.36400
C2504       C  0.57019449  0.53036495  0.84426583     0.36400
N2505       N  0.71037394  0.93662616  0.86847376    -0.38400
N2506       N  0.54408914  0.54100714  0.83717574    -0.38400
N2507       N  0.65910040  0.96304539  0.94874156    -0.37900
N2508       N  0.62061296  0.55773119  0.77583959    -0.37900
C2509       C  0.62148734  0.50284472  0.60539456    -0.04500
C2510       C  0.62575371  0.53101124  0.62593527    -0.01600
C2511       C  0.64849798  0.52972765  0.65304810     0.03300
C2512       C  0.66877998  0.50105669  0.65822399    -0.04500
C2513       C  0.66731227  0.97451344  0.63521574    -0.01600
C2514       C  0.64420933  0.97575575  0.60838681     0.03300
C2515       C  0.61001386  0.56251585  0.61630888     0.38000
C2516       C  0.68946615  0.94586694  0.63941826     0.38000
C2517       C  0.64486897  0.94989142  0.58322662     0.36400
C2518       C  0.65137086  0.55805119  0.67530592     0.36400
N2519       N  0.64599782  0.92933988  0.56306480    -0.38400
N2520       N  0.65349448  0.58061306  0.69315624    -0.38400
N2521       N  0.70726218  0.92315242  0.64299589    -0.37900
N2522       N  0.59833017  0.58776042  0.60754825    -0.38900
C2523       C  0.89274547  0.50071361  0.61733852    -0.04500
C2524       C  0.86703521  0.97622940  0.61702743    -0.01600
C2525       C  0.84302780  0.97484968  0.64287278     0.03300
C2526       C  0.84259841  0.49950964  0.66788600    -0.04500
C2527       C  0.86735800  0.52486299  0.66756786    -0.01600
C2528       C  0.89287723  0.52491700  0.64299897     0.03300
C2529       C  0.86504689  0.95215190  0.59016283     0.38000
C2530       C  0.86562034  0.55180637  0.69157704     0.38000
C2531       C  0.91815933  0.55101654  0.64321772     0.36400
C2532       C  0.81869178  0.94780134  0.64385211     0.36400
N2533       N  0.93821460  0.57195289  0.64367569    -0.38400
N2534       N  0.79935104  0.92618365  0.64476862    -0.38400
N2535       N  0.86399750  0.57354422  0.71044938    -0.37900
N2536       N  0.86288615  0.93307136  0.56867045    -0.37900
C2537       C  0.49218556  0.60730983  0.88549518    -0.04500
C2538       C  0.52113538  0.62054139  0.87016814    -0.01600
C2539       C  0.51816180  0.64619512  0.84571242     0.03300
C2540       C  0.48616540  0.65796037  0.83582567    -0.04500
C2541       C  0.95714966  0.64358955  0.85008940    -0.01600
C2542       C  0.96016083  0.61842050  0.87509067     0.03300
C2543       C  0.55394778  0.60775976  0.87963630     0.38000
C2544       C  0.92430004  0.65485680  0.83917165     0.38000
C2545       C  0.93031022  0.60407936  0.89023783     0.36400
C2546       C  0.54806321  0.66075612  0.83090148     0.36400
N2547       N  0.90646930  0.59277277  0.90236910    -0.38400
N2548       N  0.57194540  0.67238992  0.81918255    -0.38400
N2549       N  0.89801111  0.66371388  0.83051367    -0.37900
N2550       N  0.58006466  0.59754603  0.88730280    -0.37900
C2551       C  0.49462378  0.83246419  0.84458503    -0.04500
C2552       C  0.51805250  0.83093145  0.87118713    -0.01600
C2553       C  0.51748103  0.85520400  0.89668715     0.03300
C2554       C  0.49548892  0.88310763  0.89428621    -0.04500
C2555       C  0.97288642  0.88517018  0.86675871    -0.01600
C2556       C  0.97110141  0.85894680  0.84339092     0.03300
C2557       C  0.54328292  0.80467509  0.87185356     0.38000
C2558       C  0.95173728  0.91441733  0.86155370     0.38000
C2559       C  0.94518300  0.85944815  0.81772389     0.36400
C2560       C  0.54031668  0.85162561  0.92484300     0.36400
N2561       N  0.92448584  0.85994455  0.79731640    -0.38400
N2562       N  0.55822500  0.84802501  0.94748097    -0.38400
N2563       N  0.93503674  0.93765775  0.85625251    -0.37900
N2564       N  0.56329744  0.78365076  0.87208982    -0.37900
C2565       C  0.50792712  0.84142788  0.67064095    -0.04500
C2566       C  0.53869838  0.85422214  0.65871341    -0.01600
C2567       C  0.53895115  0.88171940  0.63600024     0.03300
C2568       C  0.50860901  0.89469868  0.62316742    -0.04500
C2569       C  0.97847161  0.88534169  0.63887522    -0.01600
C2570       C  0.97782926  0.85791020  0.66154070     0.03300
C2571       C  0.57000020  0.83943865  0.67006735     0.38000
C2572       C  0.94909855  0.90630166  0.63463133     0.38000
C2573       C  0.94620820  0.84689611  0.67570814     0.36400
C2574       C  0.56997176  0.89915433  0.62922856     0.36400
N2575       N  0.92086390  0.83821262  0.68683325    -0.38400
N2576       N  0.59495735  0.91311863  0.62481120    -0.38400
N2577       N  0.92578680  0.92335408  0.63191041    -0.37900
N2578       N  0.59511411  0.82770749  0.67886082    -0.37900
C2579       C  0.49589012  0.66534567  0.66165778    -0.04500
C2580       C  0.51944455  0.63890612  0.66426576    -0.01600
C2581       C  0.51827714  0.61198883  0.64168341     0.03300
C2582       C  0.49841589  0.61429715  0.61212036    -0.04500
C2583       C  0.97579537  0.64160625  0.60870591    -0.01600
C2584       C  0.97331561  0.66583574  0.63423989     0.03300
C2585       C  0.54471604  0.63897637  0.69056714     0.38000
C2586       C  0.95307541  0.64361826  0.58030252     0.38000
C2587       C  0.94671684  0.69064152  0.63290679     0.36400
C2588       C  0.53536885  0.58105982  0.65088288     0.36400
N2589       N  0.92537093  0.71029458  0.63203191    -0.38400
N2590       N  0.54788916  0.55610275  0.65929480    -0.38400
N2591       N  0.93474178  0.64568101  0.55782688    -0.37900
N2592       N  0.56503229  0.63887195  0.71135799    -0.37900
loop_ 
_geom_bond_atom_site_label_1 
_geom_bond_atom_site_label_2 
_geom_bond_distance 
_geom_bond_site_symmetry_2 
_ccdc_geom_bond_type 
N1            C6   1.351       .  A
N1            C5   1.355       .  A
N1           H33   1.037   1_655  S
N2            C9   1.352       .  A
N2           C10   1.350       .  A
N3            C8   1.358   1_655  A
N3            C7   1.355   1_655  A
N3           H34   1.037       .  S
N4           C11   1.350       .  A
N4           C12   1.352       .  A
C5           C13   1.388       .  A
C5           C21   1.419       .  A
C6           C22   1.413       .  A
C6           C14   1.386       .  A
C7           C15   1.386       .  A
C7           C24   1.419       .  A
C8           C23   1.425   1_455  A
C8           C16   1.388       .  A
C9           C21   1.417   1_455  A
C9           C17   1.387       .  A
C10          C24   1.414       .  A
C10          C18   1.386       .  A
C11          C19   1.384       .  A
C11          C22   1.412       .  A
C12          C20   1.389       .  A
C12          C23   1.421       .  A
C13          C14   1.374       .  A
C13          H25   1.082       .  S
C14          H26   1.082       .  S
C15          C16   1.376       .  A
C15          H27   1.082       .  S
C16          H28   1.082       .  S
C17          C18   1.370       .  A
C17          H29   1.082       .  S
C18          H30   1.082       .  S
C19          C20   1.371       .  A
C19          H31   1.082       .  S
C20          H32   1.082       .  S
C21         C283   1.504       .  S
C22         C272   1.490       .  S
C23         C311   1.511       .  S
C24         C297   1.495       .  S
O35          C46   1.296   1_655  A
O35        Eu395   2.490   1_654  S
O36          C47   1.300       .  A
O36        Eu394   2.510       .  S
O37          C48   1.296       .  A
O37       Eu1987   2.486       .  S
O38          C49   1.298       .  A
O38        Eu691   2.496       .  S
O39         C697   1.286       .  A
O39        Eu397   2.430   1_554  S
O40         C696   1.291       .  A
O40        Eu396   2.452       .  S
O41          C47   1.284       .  A
O41         Eu43   2.426       .  S
O42          C46   1.288       .  A
O42        Eu691   2.443       .  S
Eu43       O1981   2.486   1_455  S
Eu43        O686   2.496       .  S
Eu43        O690   2.443       .  S
Eu43         O44   2.356       .  S
Eu43        O701   2.353       .  S
Eu43       O1989   2.349   1_455  S
Eu43       O1347   2.367   1_455  S
O44        Eu397   2.357   1_554  S
O44        Eu394   2.349       .  S
O45       Eu1987   2.349       .  S
O45       Eu1691   2.345   1_554  S
O45       Eu1044   2.359   1_545  S
C46         C314   1.503   1_455  S
C47         C300   1.483       .  S
C48         C255   1.494       .  S
C48         O688   1.291       .  A
C49         C241   1.483       .  S
C49         O687   1.286       .  A
H50          O51   0.966       .  S
O51       Eu1339   2.367       .  S
O51        Eu396   2.366       .  S
O51       Eu1690   2.354       .  S
H52          O53   0.967       .  S
O53        Eu691   2.352       .  S
O53        Eu395   2.350   1_554  S
O53       Eu1045   2.368   1_544  S
O54          C77   1.295       .  A
O54         Eu70   2.481   1_655  S
O55          C78   1.291       .  A
O55         Eu71   2.459   1_655  S
O56          C79   1.295       .  A
O56         Eu72   2.483       .  S
O57          C80   1.294       .  A
O57         Eu73   2.481       .  S
O58          C81   1.293       .  A
O58        Eu721   2.466   1_545  S
O59          C82   1.295       .  A
O59        Eu720   2.477   1_545  S
O60          C83   1.290       .  A
O60       Eu1370   2.457       .  S
O61          C84   1.292       .  A
O61         Eu74   2.467   1_455  S
O62          C83   1.293       .  A
O62         Eu72   2.472       .  S
O63          C84   1.288       .  A
O63         Eu73   2.445       .  S
O64          C79   1.288       .  A
O64       Eu1366   2.444       .  S
O65          C82   1.289       .  A
O65       Eu1367   2.445       .  S
O66          C81   1.290       .  A
O66         Eu71   2.453       .  S
O67          C80   1.288       .  A
O67         Eu70   2.445       .  S
O68          C77   1.291       .  A
O68         Eu74   2.457       .  S
O69          C78   1.288       .  A
O69        Eu722   2.446   1_545  S
Eu70        O360   2.510       .  S
Eu70       O1360   2.444   1_455  S
Eu70         O88   2.364       .  S
Eu70        O368   2.349       .  S
Eu70       O1671   2.354   1_455  S
Eu70       O1372   2.361   1_455  S
Eu71        O359   2.490   1_455  S
Eu71       O1361   2.445   1_455  S
Eu71         O75   2.360       .  S
Eu71       O1665   2.345   1_455  S
Eu71        O377   2.350       .  S
Eu71       O1382   2.360   1_455  S
Eu72        O364   2.452       .  S
Eu72        O707   2.477       .  S
Eu72         O76   2.347       .  S
Eu72       O1017   2.359       .  S
Eu72        O375   2.366       .  S
Eu72        O734   2.344       .  S
Eu73        O363   2.430       .  S
Eu73        O706   2.466       .  S
Eu73         O88   2.348       .  S
Eu73        O368   2.357       .  S
Eu73       O1025   2.368       .  S
Eu73        O723   2.343       .  S
Eu74       O1356   2.457       .  S
Eu74        O717   2.446       .  S
Eu74         O88   2.350   1_655  S
Eu74        O723   2.353   1_655  S
Eu74       O2030   2.354       .  S
Eu74       O1372   2.352       .  S
O75        Eu721   2.343   1_545  S
O75        Eu722   2.353   1_445  S
O76       Eu1366   2.361       .  S
O76       Eu1370   2.352       .  S
C77         C286   1.498       .  S
C78         C269   1.471       .  S
C79         C157   1.482       .  S
C80         C188   1.482       .  S
C81         C199   1.494       .  S
C82         C171   1.493       .  S
C83         C216   1.503       .  S
C84         C230   1.501       .  S
H85          O86   0.964       .  S
O86       Eu1367   2.360       .  S
O86        Eu720   2.344   1_545  S
O86       Eu2018   2.354   1_545  S
H87          O88   0.967       .  S
N89          C94   1.354   1_565  A
N89          C93   1.354   1_565  A
N89         H121   1.042       .  S
N90          C97   1.350       .  A
N90          C98   1.352       .  A
N91          C96   1.351   1_565  A
N91          C95   1.353   1_565  A
N91         H122   1.040       .  S
N92          C99   1.351   1_545  A
N92         C100   1.349   1_545  A
C93         C101   1.387       .  A
C93         C109   1.419   1_545  A
C94         C110   1.421       .  A
C94         C102   1.388       .  A
C95         C103   1.387       .  A
C95         C112   1.415   1_545  A
C96         C111   1.413   1_545  A
C96         C104   1.387       .  A
C97         C109   1.417       .  A
C97         C105   1.388       .  A
C98         C112   1.412       .  A
C98         C106   1.384       .  A
C99         C107   1.387       .  A
C99         C110   1.415   1_565  A
C100        C108   1.385       .  A
C100        C111   1.410       .  A
C101        C102   1.381       .  A
C101        H113   1.082       .  S
C102        H114   1.082       .  S
C103        C104   1.377       .  A
C103        H115   1.082       .  S
C104        H116   1.082       .  S
C105        C106   1.377       .  A
C105        H117   1.082       .  S
C106        H118   1.082       .  S
C107        C108   1.377       .  A
C107        H119   1.082       .  S
C108        H120   1.082       .  S
C109        C213   1.508   1_565  S
C110        C227   1.510       .  S
C111        C244   1.492   1_565  S
C112        C258   1.501       .  S
N123        C128   1.353       .  A
N123        C127   1.354       .  A
N123        H155   1.034       .  S
N124        C131   1.351       .  A
N124        C132   1.351       .  A
N125        C130   1.353       .  A
N125        C129   1.353       .  A
N125        H156   1.040       .  S
N126        C133   1.351       .  A
N126        C134   1.353       .  A
C127        C135   1.388       .  A
C127        C143   1.420       .  A
C128        C144   1.418       .  A
C128        C136   1.387       .  A
C129        C137   1.386       .  A
C129        C146   1.414       .  A
C130        C145   1.417       .  A
C130        C138   1.387       .  A
C131        C143   1.418       .  A
C131        C139   1.388       .  A
C132        C146   1.415       .  A
C132        C140   1.386       .  A
C133        C141   1.388       .  A
C133        C144   1.419       .  A
C134        C142   1.385       .  A
C134        C145   1.415       .  A
C135        C136   1.374       .  A
C135        H147   1.082       .  S
C136        H148   1.082       .  S
C137        C138   1.377       .  A
C137        H149   1.082       .  S
C138        H150   1.082       .  S
C139        C140   1.369       .  A
C139        H151   1.081       .  S
C140        H152   1.082       .  S
C141        C142   1.369       .  A
C141        H153   1.081       .  S
C142        H154   1.082       .  S
C143        C160   1.498       .  S
C144        C185   1.496       .  S
C145        C202   1.506       .  S
C146        C174   1.500       .  S
C157        C162   1.410       .  A
C157        C482   1.409       .  A
C158        C159   1.407       .  A
C158        C481   1.409       .  A
C158        C163   1.443       .  S
C159        C484   1.411   1_554  A
C159        C166   1.452       .  S
C160        C161   1.414       .  A
C160        C483   1.411       .  A
C161        C162   1.411       .  A
C161        C164   1.450       .  S
C162        C165   1.448       .  S
C163        N170   1.154       .  T
C164        N169   1.157       .  T
C165        N167   1.156       .  T
C166        N168   1.157       .  T
C171        C176   1.418       .  A
C171        C496   1.415       .  A
C172        C173   1.412       .  A
C172        C495   1.415   1_554  A
C172        C177   1.451       .  S
C173        C498   1.413   1_554  A
C173        C180   1.449       .  S
C174        C175   1.412       .  A
C174        C497   1.413       .  A
C175        C176   1.409       .  A
C175        C178   1.453       .  S
C176        C179   1.450       .  S
C177        N184   1.157       .  T
C178        N183   1.157       .  T
C179        N181   1.157       .  T
C180        N182   1.157       .  T
C185        C190   1.415       .  A
C185        C510   1.410       .  A
C186        C187   1.404       .  A
C186        C509   1.410   1_554  A
C186        C191   1.452       .  S
C187        C512   1.408   1_554  A
C187        C194   1.443       .  S
C188        C189   1.411       .  A
C188        C511   1.408       .  A
C189        C190   1.413       .  A
C189        C192   1.450       .  S
C190        C193   1.450       .  S
C191        N198   1.157       .  T
C192        N197   1.157       .  T
C193        N195   1.157       .  T
C194        N196   1.155       .  T
C199        C204   1.418       .  A
C199        C524   1.416       .  A
C200        C201   1.409       .  A
C200        C523   1.416   1_554  A
C200        C205   1.450       .  S
C201        C526   1.414   1_554  A
C201        C208   1.451       .  S
C202        C203   1.416       .  A
C202        C525   1.414       .  A
C203        C204   1.412       .  A
C203        C206   1.452       .  S
C204        C207   1.450       .  S
C205        N212   1.157       .  T
C206        N211   1.157       .  T
C207        N209   1.157       .  T
C208        N210   1.157       .  T
C213        C218   1.413       .  A
C213        C862   1.414   1_545  A
C214        C215   1.413       .  A
C214        C861   1.414       .  A
C214        C219   1.448       .  S
C215        C216   1.419       .  A
C215        C222   1.451       .  S
C216        C865   1.421       .  A
C217        C218   1.411       .  A
C217        C864   1.421   1_545  A
C217        C220   1.450       .  S
C218        C221   1.452       .  S
C219        N226   1.156       .  T
C220        N225   1.157       .  T
C221        N223   1.157       .  T
C222        N224   1.158       .  T
C227        C228   1.418       .  A
C227        C880   1.412   1_545  A
C228        C229   1.416       .  A
C228        C233   1.451       .  S
C229        C878   1.421       .  A
C229        C236   1.451       .  S
C230        C231   1.420       .  A
C230        C877   1.421       .  A
C231        C232   1.406       .  A
C231        C234   1.452       .  S
C232        C875   1.412       .  A
C232        C235   1.449       .  S
C233        N240   1.157       .  T
C234        N239   1.158       .  T
C235        N237   1.156       .  T
C236        N238   1.158       .  T
C241        C242   1.408       .  A
C241        C894   1.413   1_545  A
C242        C243   1.409       .  A
C242        C247   1.450       .  S
C243        C244   1.412       .  A
C243        C250   1.450       .  S
C244        C893   1.411   1_545  A
C245        C246   1.410       .  A
C245        C892   1.411       .  A
C245        C248   1.451       .  S
C246        C889   1.413       .  A
C246        C249   1.448       .  S
C247        N254   1.157       .  T
C248        N253   1.157       .  T
C249        N251   1.156       .  T
C250        N252   1.157       .  T
C255        C260   1.416       .  A
C255        C904   1.417   1_545  A
C256        C257   1.410       .  A
C256        C903   1.417       .  A
C256        C261   1.450       .  S
C257        C906   1.410       .  A
C257        C264   1.451       .  S
C258        C259   1.413   1_565  A
C258        C905   1.410       .  A
C259        C260   1.416       .  A
C259        C262   1.450       .  S
C260        C263   1.449       .  S
C261        N268   1.156       .  T
C262        N267   1.157       .  T
C263        N265   1.157       .  T
C264        N266   1.157       .  T
C269        C270   1.408   1_655  A
C269       C1570   1.412       .  A
C270        C271   1.407       .  A
C270        C275   1.452       .  S
C271        C272   1.413   1_455  A
C271        C278   1.451       .  S
C272       C1569   1.410       .  A
C273        C274   1.408       .  A
C273       C1568   1.410       .  A
C273        C276   1.449       .  S
C274       C1565   1.412       .  A
C274        C277   1.451       .  S
C275        N282   1.158       .  T
C276        N281   1.157       .  T
C277        N279   1.158       .  T
C278        N280   1.157       .  T
C283        C284   1.412   1_655  A
C283       C1584   1.412       .  A
C284        C285   1.413       .  A
C284        C289   1.452       .  S
C285        C286   1.418   1_455  A
C285        C292   1.449       .  S
C286       C1583   1.420       .  A
C287        C288   1.411       .  A
C287       C1582   1.420       .  A
C287        C290   1.451       .  S
C288       C1579   1.412       .  A
C288        C291   1.452       .  S
C289        N296   1.157       .  T
C290        N295   1.157       .  T
C291        N293   1.157       .  T
C292        N294   1.156       .  T
C297        C298   1.412       .  A
C297       C1598   1.413   1_455  A
C298        C299   1.411       .  A
C298        C303   1.450       .  S
C299        C300   1.409       .  A
C299        C306   1.445       .  S
C300       C1597   1.406   1_455  A
C301        C302   1.408       .  A
C301       C1596   1.406       .  A
C301        C304   1.447       .  S
C302       C1593   1.413       .  A
C302        C305   1.450       .  S
C303        N310   1.157       .  T
C304        N309   1.156       .  T
C305        N307   1.157       .  T
C306        N308   1.155       .  T
C311        C312   1.414   1_655  A
C311       C1612   1.414       .  A
C312        C313   1.410       .  A
C312        C317   1.452       .  S
C313        C314   1.420   1_455  A
C313        C320   1.450       .  S
C314       C1611   1.419       .  A
C315        C316   1.416       .  A
C315       C1610   1.419       .  A
C315        C318   1.449       .  S
C316       C1607   1.414       .  A
C316        C319   1.451       .  S
C317        N324   1.157       .  T
C318        N323   1.157       .  T
C319        N321   1.157       .  T
C320        N322   1.158       .  T
N325        C330   1.351       .  A
N325        C329   1.355       .  A
N325        H357   1.037   1_655  S
N326        C333   1.352       .  A
N326        C334   1.350       .  A
N327        C332   1.358   1_655  A
N327        C331   1.355   1_655  A
N327        H358   1.037       .  S
N328        C335   1.350       .  A
N328        C336   1.352       .  A
C329        C337   1.388       .  A
C329        C345   1.419       .  A
C330        C346   1.413       .  A
C330        C338   1.386       .  A
C331        C339   1.386       .  A
C331        C348   1.419       .  A
C332        C347   1.425   1_455  A
C332        C340   1.388       .  A
C333        C345   1.417   1_455  A
C333        C341   1.387       .  A
C334        C348   1.414       .  A
C334        C342   1.386       .  A
C335        C343   1.384       .  A
C335        C346   1.412       .  A
C336        C344   1.389       .  A
C336        C347   1.421       .  A
C337        C338   1.374       .  A
C337        H349   1.082       .  S
C338        H350   1.082       .  S
C339        C340   1.376       .  A
C339        H351   1.082       .  S
C340        H352   1.082       .  S
C341        C342   1.370       .  A
C341        H353   1.082       .  S
C342        H354   1.082       .  S
C343        C344   1.371       .  A
C343        H355   1.082       .  S
C344        H356   1.082       .  S
C345        C607   1.504       .  S
C346        C596   1.490       .  S
C347        C635   1.511       .  S
C348        C621   1.495       .  S
O359        C370   1.296   1_655  A
O360        C371   1.300       .  A
O361        C372   1.296       .  A
O361      Eu2311   2.486       .  S
O362        C373   1.298       .  A
O362      Eu1015   2.496       .  S
O363       C1021   1.286       .  A
O364       C1020   1.291       .  A
O365        C371   1.284       .  A
O365       Eu367   2.426       .  S
O366        C370   1.288       .  A
O366      Eu1015   2.443       .  S
Eu367      O2305   2.486   1_455  S
Eu367      O1010   2.496       .  S
Eu367      O1014   2.443       .  S
Eu367      O1025   2.353       .  S
Eu367      O2313   2.349   1_455  S
Eu367       O368   2.356       .  S
Eu367      O1671   2.367   1_455  S
O369      Eu2311   2.349       .  S
O369      Eu1367   2.345       .  S
O369       Eu720   2.359   1_545  S
C370        C638   1.503   1_455  S
C371        C624   1.483       .  S
C372        C579   1.494       .  S
C372       O1012   1.291       .  A
C373        C565   1.483       .  S
C373       O1011   1.286       .  A
H374        O375   0.966       .  S
O375      Eu1663   2.367       .  S
O375      Eu1366   2.354       .  S
H376        O377   0.967       .  S
O377      Eu1015   2.352       .  S
O377       Eu721   2.368   1_545  S
O378        C401   1.295       .  A
O378       Eu394   2.481   1_656  S
O379        C402   1.291       .  A
O379       Eu395   2.459   1_655  S
O380        C403   1.295       .  A
O380       Eu396   2.483       .  S
O381        C404   1.294       .  A
O381       Eu397   2.481       .  S
O382        C405   1.293       .  A
O382      Eu1045   2.466   1_545  S
O383        C406   1.295       .  A
O383      Eu1044   2.477   1_545  S
O384        C407   1.290       .  A
O384      Eu1694   2.457       .  S
O385        C408   1.292       .  A
O385       Eu398   2.467   1_455  S
O386        C407   1.293       .  A
O386       Eu396   2.472   1_556  S
O387        C408   1.288       .  A
O387       Eu397   2.445       .  S
O388        C403   1.288       .  A
O388      Eu1690   2.444       .  S
O389        C406   1.289   1_556  A
O389      Eu1691   2.445       .  S
O390        C405   1.290       .  A
O390       Eu395   2.453       .  S
O391        C404   1.288   1_554  A
O391       Eu394   2.445       .  S
O392        C401   1.291       .  A
O392       Eu398   2.457       .  S
O393        C402   1.288       .  A
O393      Eu1046   2.446   1_545  S
Eu394      O1684   2.444   1_455  S
Eu394      O1347   2.354   1_455  S
Eu394       O412   2.364   1_554  S
Eu394      O1696   2.361   1_454  S
Eu395      O1685   2.445   1_455  S
Eu395      O1341   2.345   1_456  S
Eu395       O399   2.360       .  S
Eu395      O1706   2.360   1_455  S
Eu396      O1031   2.477       .  S
Eu396       O693   2.359       .  S
Eu396      O1058   2.344   1_554  S
Eu396       O400   2.347   1_554  S
Eu397      O1030   2.466       .  S
Eu397       O701   2.368   1_556  S
Eu397      O1047   2.343       .  S
Eu397       O412   2.348       .  S
Eu398      O1680   2.457       .  S
Eu398      O1041   2.446       .  S
Eu398      O1047   2.353   1_655  S
Eu398      O2354   2.354       .  S
Eu398       O412   2.350   1_655  S
Eu398      O1696   2.352       .  S
O399      Eu1045   2.343   1_545  S
O399      Eu1046   2.353   1_445  S
O400      Eu1690   2.361   1_556  S
O400      Eu1694   2.352       .  S
C401        C610   1.498       .  S
C402        C593   1.471       .  S
C403        C481   1.482       .  S
C404        C512   1.482       .  S
C405        C523   1.494       .  S
C406        C495   1.493   1_554  S
C407        C540   1.503       .  S
C408        C554   1.501       .  S
H409        O410   0.964       .  S
O410      Eu1691   2.360       .  S
O410      Eu1044   2.344   1_546  S
O410      Eu2342   2.354   1_545  S
H411        O412   0.967       .  S
N413        C418   1.354   1_565  A
N413        C417   1.354   1_565  A
N413        H445   1.042       .  S
N414        C421   1.350       .  A
N414        C422   1.352       .  A
N415        C420   1.351   1_565  A
N415        C419   1.353   1_565  A
N415        H446   1.040       .  S
N416        C423   1.351   1_545  A
N416        C424   1.349   1_545  A
C417        C425   1.387       .  A
C417        C433   1.419   1_545  A
C418        C434   1.421       .  A
C418        C426   1.388       .  A
C419        C427   1.387       .  A
C419        C436   1.415   1_545  A
C420        C435   1.413   1_545  A
C420        C428   1.387       .  A
C421        C433   1.417       .  A
C421        C429   1.388       .  A
C422        C436   1.412       .  A
C422        C430   1.384       .  A
C423        C431   1.387       .  A
C423        C434   1.415   1_565  A
C424        C432   1.385       .  A
C424        C435   1.410       .  A
C425        C426   1.381       .  A
C425        H437   1.082       .  S
C426        H438   1.082       .  S
C427        C428   1.377       .  A
C427        H439   1.082       .  S
C428        H440   1.082       .  S
C429        C430   1.377       .  A
C429        H441   1.082       .  S
C430        H442   1.082       .  S
C431        C432   1.377       .  A
C431        H443   1.082       .  S
C432        H444   1.082       .  S
C433        C537   1.508   1_565  S
C434        C551   1.510       .  S
C435        C568   1.492   1_565  S
C436        C582   1.501       .  S
N447        C452   1.353       .  A
N447        C451   1.354       .  A
N447        H479   1.034   1_556  S
N448        C455   1.351   1_556  A
N448        C456   1.351   1_556  A
N449        C454   1.353       .  A
N449        C453   1.353       .  A
N449        H480   1.040   1_556  S
N450        C457   1.351       .  A
N450        C458   1.353       .  A
C451        C459   1.388       .  A
C451        C467   1.420       .  A
C452        C468   1.418       .  A
C452        C460   1.387       .  A
C453        C461   1.386       .  A
C453        C470   1.414       .  A
C454        C469   1.417       .  A
C454        C462   1.387       .  A
C455        C467   1.418   1_554  A
C455        C463   1.388       .  A
C456        C470   1.415   1_554  A
C456        C464   1.386       .  A
C457        C465   1.388   1_556  A
C457        C468   1.419       .  A
C458        C466   1.385   1_556  A
C458        C469   1.415       .  A
C459        C460   1.374       .  A
C459        H471   1.082       .  S
C460        H472   1.082       .  S
C461        C462   1.377       .  A
C461        H473   1.082       .  S
C462        H474   1.082       .  S
C463        C464   1.369       .  A
C463        H475   1.081       .  S
C464        H476   1.082       .  S
C465        C466   1.369       .  A
C465        H477   1.081       .  S
C466        H478   1.082       .  S
C467        C484   1.498       .  S
C468        C509   1.496       .  S
C469        C526   1.506       .  S
C470        C498   1.500       .  S
C481        C486   1.410   1_554  A
C482        C483   1.407       .  A
C482        C487   1.443       .  S
C483        C490   1.452       .  S
C484        C485   1.414       .  A
C485        C486   1.411       .  A
C485        C488   1.450       .  S
C486        C489   1.448       .  S
C487        N494   1.154       .  T
C488        N493   1.157       .  T
C489        N491   1.156       .  T
C490        N492   1.157       .  T
C495        C500   1.418       .  A
C496        C497   1.412       .  A
C496        C501   1.452       .  S
C497        C504   1.449       .  S
C498        C499   1.412       .  A
C499        C500   1.409       .  A
C499        C502   1.453       .  S
C500        C503   1.450       .  S
C501        N508   1.157       .  T
C502        N507   1.157       .  T
C503        N505   1.157       .  T
C504        N506   1.157       .  T
C509        C514   1.415       .  A
C510        C511   1.404       .  A
C510        C515   1.452       .  S
C511        C518   1.443       .  S
C512        C513   1.411       .  A
C513        C514   1.413       .  A
C513        C516   1.450       .  S
C514        C517   1.450       .  S
C515        N522   1.157       .  T
C516        N521   1.157       .  T
C517        N519   1.157       .  T
C518        N520   1.155       .  T
C523        C528   1.418       .  A
C524        C525   1.409       .  A
C524        C529   1.450       .  S
C525        C532   1.451       .  S
C526        C527   1.416       .  A
C527        C528   1.412       .  A
C527        C530   1.452       .  S
C528        C531   1.450       .  S
C529        N536   1.157       .  T
C530        N535   1.157       .  T
C531        N533   1.157       .  T
C532        N534   1.157       .  T
C537       C1186   1.414   1_545  A
C537        C542   1.413       .  A
C538       C1185   1.414       .  A
C538        C539   1.413       .  A
C538        C543   1.448       .  S
C539        C540   1.419       .  A
C539        C546   1.451       .  S
C540       C1189   1.421       .  A
C541       C1188   1.421   1_545  A
C541        C542   1.411       .  A
C541        C544   1.450       .  S
C542        C545   1.452       .  S
C543        N550   1.156       .  T
C544        N549   1.157       .  T
C545        N547   1.157       .  T
C546        N548   1.158       .  T
C551        C552   1.418       .  A
C551       C1204   1.412   1_545  A
C552        C553   1.416       .  A
C552        C557   1.451       .  S
C553       C1202   1.421       .  A
C553        C560   1.451       .  S
C554       C1201   1.421       .  A
C554        C555   1.420       .  A
C555        C556   1.406       .  A
C555        C558   1.452       .  S
C556       C1199   1.412       .  A
C556        C559   1.449       .  S
C557        N564   1.157       .  T
C558        N563   1.158       .  T
C559        N561   1.156       .  T
C560        N562   1.158       .  T
C565        C566   1.408       .  A
C565       C1218   1.413   1_545  A
C566        C567   1.409       .  A
C566        C571   1.450       .  S
C567        C568   1.412       .  A
C567        C574   1.450       .  S
C568       C1217   1.411   1_545  A
C569       C1216   1.411       .  A
C569        C570   1.410       .  A
C569        C572   1.451       .  S
C570       C1213   1.413       .  A
C570        C573   1.448       .  S
C571        N578   1.157       .  T
C572        N577   1.157       .  T
C573        N575   1.156       .  T
C574        N576   1.157       .  T
C579       C1228   1.417   1_545  A
C579        C584   1.416       .  A
C580       C1227   1.417       .  A
C580        C581   1.410       .  A
C580        C585   1.450       .  S
C581       C1230   1.410       .  A
C581        C588   1.451       .  S
C582       C1229   1.410       .  A
C582        C583   1.413   1_565  A
C583        C584   1.416       .  A
C583        C586   1.450       .  S
C584        C587   1.449       .  S
C585        N592   1.156       .  T
C586        N591   1.157       .  T
C587        N589   1.157       .  T
C588        N590   1.157       .  T
C593        C594   1.408   1_655  A
C593       C1894   1.412       .  A
C594        C595   1.407       .  A
C594        C599   1.452       .  S
C595        C596   1.413   1_455  A
C595        C602   1.451       .  S
C596       C1893   1.410       .  A
C597       C1892   1.410       .  A
C597        C598   1.408       .  A
C597        C600   1.449       .  S
C598       C1889   1.412       .  A
C598        C601   1.451       .  S
C599        N606   1.158       .  T
C600        N605   1.157       .  T
C601        N603   1.158       .  T
C602        N604   1.157       .  T
C607        C608   1.412   1_655  A
C607       C1908   1.412       .  A
C608        C609   1.413       .  A
C608        C613   1.452       .  S
C609        C610   1.418   1_455  A
C609        C616   1.449       .  S
C610       C1907   1.420       .  A
C611       C1906   1.420       .  A
C611        C612   1.411       .  A
C611        C614   1.451       .  S
C612       C1903   1.412       .  A
C612        C615   1.452       .  S
C613        N620   1.157       .  T
C614        N619   1.157       .  T
C615        N617   1.157       .  T
C616        N618   1.156       .  T
C621        C622   1.412       .  A
C621       C1922   1.413   1_455  A
C622        C623   1.411       .  A
C622        C627   1.450       .  S
C623        C624   1.409       .  A
C623        C630   1.445       .  S
C624       C1921   1.406   1_455  A
C625       C1920   1.406       .  A
C625        C626   1.408       .  A
C625        C628   1.447       .  S
C626       C1917   1.413       .  A
C626        C629   1.450       .  S
C627        N634   1.157       .  T
C628        N633   1.156       .  T
C629        N631   1.157       .  T
C630        N632   1.155       .  T
C635        C636   1.414   1_655  A
C635       C1936   1.414       .  A
C636        C637   1.410       .  A
C636        C641   1.452       .  S
C637        C638   1.420   1_455  A
C637        C644   1.450       .  S
C638       C1935   1.419       .  A
C639       C1934   1.419       .  A
C639        C640   1.416       .  A
C639        C642   1.449       .  S
C640       C1931   1.414       .  A
C640        C643   1.451       .  S
C641        N648   1.157       .  T
C642        N647   1.157       .  T
C643        N645   1.157       .  T
C644        N646   1.158       .  T
N649        C654   1.351       .  A
N649        C653   1.355       .  A
N649        H681   1.037   1_655  S
N650        C657   1.352       .  A
N650        C658   1.350       .  A
N651        C656   1.358   1_655  A
N651        C655   1.355   1_655  A
N651        H682   1.036       .  S
N652        C659   1.350       .  A
N652        C660   1.352       .  A
C653        C661   1.388       .  A
C653        C669   1.419       .  A
C654        C670   1.413       .  A
C654        C662   1.386       .  A
C655        C663   1.386       .  A
C655        C672   1.419       .  A
C656        C671   1.425   1_455  A
C656        C664   1.388       .  A
C657        C669   1.417   1_455  A
C657        C665   1.387       .  A
C658        C672   1.414       .  A
C658        C666   1.386       .  A
C659        C667   1.384       .  A
C659        C670   1.412       .  A
C660        C668   1.389       .  A
C660        C671   1.421       .  A
C661        C662   1.374       .  A
C661        H673   1.082       .  S
C662        H674   1.082       .  S
C663        C664   1.376       .  A
C663        H675   1.082       .  S
C664        H676   1.082       .  S
C665        C666   1.370       .  A
C665        H677   1.082       .  S
C666        H678   1.082       .  S
C667        C668   1.371       .  A
C667        H679   1.082       .  S
C668        H680   1.082       .  S
C669        C931   1.504       .  S
C670        C920   1.490       .  S
C671        C959   1.511       .  S
C672        C945   1.495       .  S
O683        C694   1.296   1_655  A
O683      Eu1043   2.490   1_654  S
O684        C695   1.300       .  A
O684      Eu1042   2.510       .  S
O685        C696   1.296       .  A
O685      Eu1339   2.486       .  S
O686        C697   1.298       .  A
O687      Eu1045   2.430   1_544  S
O688      Eu1044   2.452   1_545  S
O689        C695   1.284       .  A
O689       Eu691   2.426   1_565  S
O690        C694   1.288       .  A
Eu691      O1333   2.486   1_455  S
Eu691      O1341   2.349   1_455  S
Eu691       O692   2.356   1_545  S
Eu691      O1995   2.367   1_445  S
O692      Eu1045   2.357   1_554  S
O692      Eu1042   2.349       .  S
O693      Eu1339   2.349       .  S
O693      Eu2339   2.345   1_554  S
C694        C962   1.503   1_455  S
C695        C948   1.483       .  S
C696        C903   1.494       .  S
C697        C889   1.483       .  S
H698        O699   0.967       .  S
O699      Eu1987   2.367   1_565  S
O699      Eu1044   2.366       .  S
O699      Eu2338   2.354       .  S
H700        O701   0.966       .  S
O701      Eu1043   2.350   1_554  S
O702        C725   1.295       .  A
O702       Eu718   2.481   1_655  S
O703        C726   1.291       .  A
O703       Eu719   2.459   1_655  S
O704        C727   1.295       .  A
O704       Eu720   2.483       .  S
O705        C728   1.294       .  A
O705       Eu721   2.481       .  S
O706        C729   1.293       .  A
O707        C730   1.295       .  A
O708        C731   1.290       .  A
O708      Eu2018   2.457       .  S
O709        C732   1.292   1_565  A
O709       Eu722   2.467   1_455  S
O710        C731   1.293   1_545  A
O710       Eu720   2.472   1_545  S
O711        C732   1.288       .  A
O711       Eu721   2.445   1_545  S
O712        C727   1.288       .  A
O712      Eu2014   2.444       .  S
O713        C730   1.289       .  A
O713      Eu2015   2.445       .  S
O714        C729   1.290       .  A
O714       Eu719   2.453       .  S
O715        C728   1.288       .  A
O715       Eu718   2.445       .  S
O716        C725   1.291       .  A
O716       Eu722   2.457       .  S
O717        C726   1.288       .  A
Eu718      O1008   2.510       .  S
Eu718      O2008   2.444   1_455  S
Eu718      O1016   2.349       .  S
Eu718      O2319   2.354   1_455  S
Eu718       O736   2.364       .  S
Eu718      O2020   2.361   1_455  S
Eu719      O1007   2.490   1_455  S
Eu719      O2009   2.445   1_455  S
Eu719      O2313   2.345   1_455  S
Eu719      O1025   2.350       .  S
Eu719       O723   2.360       .  S
Eu719      O2030   2.360   1_455  S
Eu720      O1012   2.452   1_565  S
Eu720      O1023   2.366       .  S
Eu720       O724   2.347       .  S
Eu721      O1011   2.430   1_565  S
Eu721      O1016   2.357       .  S
Eu721       O736   2.348       .  S
Eu722      O2004   2.457       .  S
Eu722      O1382   2.354   1_565  S
Eu722       O736   2.349   1_655  S
Eu722      O2020   2.352       .  S
O724      Eu2014   2.361       .  S
O724      Eu2018   2.352       .  S
C725        C934   1.498       .  S
C726        C917   1.471       .  S
C727        C805   1.482       .  S
C728        C836   1.482       .  S
C729        C847   1.494       .  S
C730        C819   1.493       .  S
C731        C864   1.503       .  S
C732        C878   1.501       .  S
H733        O734   0.964       .  S
O734      Eu2015   2.360       .  S
O734      Eu1370   2.354       .  S
H735        O736   0.967       .  S
N737        C742   1.354       .  A
N737        C741   1.354       .  A
N737        H769   1.042       .  S
N738        C745   1.350       .  A
N738        C746   1.352       .  A
N739        C744   1.351       .  A
N739        C743   1.353       .  A
N739        H770   1.040       .  S
N740        C747   1.351       .  A
N740        C748   1.349       .  A
C741        C749   1.387       .  A
C741        C757   1.419       .  A
C742        C758   1.421       .  A
C742        C750   1.388       .  A
C743        C751   1.387       .  A
C743        C760   1.415       .  A
C744        C759   1.413       .  A
C744        C752   1.387       .  A
C745        C757   1.417       .  A
C745        C753   1.388       .  A
C746        C760   1.412       .  A
C746        C754   1.384       .  A
C747        C755   1.387       .  A
C747        C758   1.415       .  A
C748        C756   1.385       .  A
C748        C759   1.410       .  A
C749        C750   1.381       .  A
C749        H761   1.082       .  S
C750        H762   1.082       .  S
C751        C752   1.377       .  A
C751        H763   1.082       .  S
C752        H764   1.082       .  S
C753        C754   1.377       .  A
C753        H765   1.082       .  S
C754        H766   1.082       .  S
C755        C756   1.377       .  A
C755        H767   1.082       .  S
C756        H768   1.082       .  S
C757        C861   1.508       .  S
C758        C875   1.510       .  S
C759        C892   1.492       .  S
C760        C906   1.501       .  S
N771        C776   1.353       .  A
N771        C775   1.354       .  A
N771        H803   1.034       .  S
N772        C779   1.351       .  A
N772        C780   1.351       .  A
N773        C778   1.353       .  A
N773        C777   1.353       .  A
N773        H804   1.040       .  S
N774        C781   1.351       .  A
N774        C782   1.353       .  A
C775        C783   1.388       .  A
C775        C791   1.420       .  A
C776        C792   1.418       .  A
C776        C784   1.387       .  A
C777        C785   1.386       .  A
C777        C794   1.414       .  A
C778        C793   1.417       .  A
C778        C786   1.387       .  A
C779        C791   1.418       .  A
C779        C787   1.388       .  A
C780        C794   1.415       .  A
C780        C788   1.386       .  A
C781        C789   1.388       .  A
C781        C792   1.419       .  A
C782        C790   1.385       .  A
C782        C793   1.415       .  A
C783        C784   1.374       .  A
C783        H795   1.082       .  S
C784        H796   1.082       .  S
C785        C786   1.378       .  A
C785        H797   1.082       .  S
C786        H798   1.082       .  S
C787        C788   1.369       .  A
C787        H799   1.081       .  S
C788        H800   1.082       .  S
C789        C790   1.369       .  A
C789        H801   1.081       .  S
C790        H802   1.082       .  S
C791        C808   1.498       .  S
C792        C833   1.496       .  S
C793        C850   1.506       .  S
C794        C822   1.500       .  S
C805       C1130   1.409       .  A
C805        C810   1.410       .  A
C806       C1129   1.409       .  A
C806        C807   1.407       .  A
C806        C811   1.443       .  S
C807       C1132   1.411   1_554  A
C807        C814   1.452       .  S
C808       C1131   1.411       .  A
C808        C809   1.414       .  A
C809        C810   1.411       .  A
C809        C812   1.450       .  S
C810        C813   1.448       .  S
C811        N818   1.154       .  T
C812        N817   1.157       .  T
C813        N815   1.156       .  T
C814        N816   1.157       .  T
C819       C1144   1.415       .  A
C819        C824   1.418       .  A
C820       C1143   1.415   1_554  A
C820        C821   1.412       .  A
C820        C825   1.452       .  S
C821       C1146   1.413   1_554  A
C821        C828   1.449       .  S
C822       C1145   1.413       .  A
C822        C823   1.412       .  A
C823        C824   1.409       .  A
C823        C826   1.453       .  S
C824        C827   1.450       .  S
C825        N832   1.157       .  T
C826        N831   1.157       .  T
C827        N829   1.157       .  T
C828        N830   1.157       .  T
C833       C1158   1.410       .  A
C833        C838   1.415       .  A
C834       C1157   1.410   1_554  A
C834        C835   1.404       .  A
C834        C839   1.452       .  S
C835       C1160   1.408   1_554  A
C835        C842   1.443       .  S
C836       C1159   1.408       .  A
C836        C837   1.411       .  A
C837        C838   1.413       .  A
C837        C840   1.450       .  S
C838        C841   1.450       .  S
C839        N846   1.157       .  T
C840        N845   1.157       .  T
C841        N843   1.157       .  T
C842        N844   1.155       .  T
C847       C1172   1.416       .  A
C847        C852   1.418       .  A
C848       C1171   1.416   1_554  A
C848        C849   1.409       .  A
C848        C853   1.450       .  S
C849       C1174   1.414   1_554  A
C849        C856   1.451       .  S
C850       C1173   1.414       .  A
C850        C851   1.416       .  A
C851        C852   1.412       .  A
C851        C854   1.452       .  S
C852        C855   1.450       .  S
C853        N860   1.157       .  T
C854        N859   1.157       .  T
C855        N857   1.157       .  T
C856        N858   1.157       .  T
C861        C866   1.413       .  A
C862        C863   1.413       .  A
C862        C867   1.448       .  S
C863        C864   1.419       .  A
C863        C870   1.451       .  S
C865        C866   1.411       .  A
C865        C868   1.450       .  S
C866        C869   1.452       .  S
C867        N874   1.156       .  T
C868        N873   1.157       .  T
C869        N871   1.157       .  T
C870        N872   1.158       .  T
C875        C876   1.418       .  A
C876        C877   1.416       .  A
C876        C881   1.451       .  S
C877        C884   1.451       .  S
C878        C879   1.420   1_545  A
C879        C880   1.406       .  A
C879        C882   1.452       .  S
C880        C883   1.449       .  S
C881        N888   1.157       .  T
C882        N887   1.158       .  T
C883        N885   1.156       .  T
C884        N886   1.158       .  T
C889        C890   1.408       .  A
C890        C891   1.409       .  A
C890        C895   1.450       .  S
C891        C892   1.412       .  A
C891        C898   1.450       .  S
C893        C894   1.410       .  A
C893        C896   1.451       .  S
C894        C897   1.448       .  S
C895        N902   1.157       .  T
C896        N901   1.157       .  T
C897        N899   1.156       .  T
C898        N900   1.157       .  T
C903        C908   1.416       .  A
C904        C905   1.410       .  A
C904        C909   1.450       .  S
C905        C912   1.451       .  S
C906        C907   1.413       .  A
C907        C908   1.416       .  A
C907        C910   1.450       .  S
C908        C911   1.449       .  S
C909        N916   1.156       .  T
C910        N915   1.157       .  T
C911        N913   1.157       .  T
C912        N914   1.157       .  T
C917        C918   1.408   1_655  A
C917       C2218   1.412       .  A
C918        C919   1.407       .  A
C918        C923   1.452       .  S
C919        C920   1.413   1_455  A
C919        C926   1.451       .  S
C920       C2217   1.410       .  A
C921       C2216   1.410       .  A
C921        C922   1.408       .  A
C921        C924   1.449       .  S
C922       C2213   1.412       .  A
C922        C925   1.451       .  S
C923        N930   1.158       .  T
C924        N929   1.157       .  T
C925        N927   1.158       .  T
C926        N928   1.157       .  T
C931        C932   1.412   1_655  A
C931       C2232   1.412       .  A
C932        C933   1.413       .  A
C932        C937   1.452       .  S
C933        C934   1.418   1_455  A
C933        C940   1.449       .  S
C934       C2231   1.420       .  A
C935       C2230   1.420       .  A
C935        C936   1.411       .  A
C935        C938   1.451       .  S
C936       C2227   1.412       .  A
C936        C939   1.452       .  S
C937        N944   1.157       .  T
C938        N943   1.157       .  T
C939        N941   1.157       .  T
C940        N942   1.156       .  T
C945        C946   1.412       .  A
C945       C2246   1.413   1_455  A
C946        C947   1.411       .  A
C946        C951   1.450       .  S
C947        C948   1.409       .  A
C947        C954   1.445       .  S
C948       C2245   1.406   1_455  A
C949       C2244   1.406       .  A
C949        C950   1.408       .  A
C949        C952   1.447       .  S
C950       C2241   1.413       .  A
C950        C953   1.450       .  S
C951        N958   1.157       .  T
C952        N957   1.156       .  T
C953        N955   1.157       .  T
C954        N956   1.155       .  T
C959        C960   1.414   1_655  A
C959       C2260   1.414       .  A
C960        C961   1.410       .  A
C960        C965   1.452       .  S
C961        C962   1.420   1_455  A
C961        C968   1.450       .  S
C962       C2259   1.419       .  A
C963       C2258   1.419       .  A
C963        C964   1.416       .  A
C963        C966   1.449       .  S
C964       C2255   1.414       .  A
C964        C967   1.451       .  S
C965        N972   1.157       .  T
C966        N971   1.157       .  T
C967        N969   1.157       .  T
C968        N970   1.158       .  T
N973        C978   1.351       .  A
N973        C977   1.355       .  A
N973       H1005   1.037   1_655  S
N974        C981   1.352       .  A
N974        C982   1.350       .  A
N975        C980   1.358   1_655  A
N975        C979   1.355   1_655  A
N975       H1006   1.036       .  S
N976        C983   1.350       .  A
N976        C984   1.352       .  A
C977        C985   1.388       .  A
C977        C993   1.419       .  A
C978        C994   1.413       .  A
C978        C986   1.386       .  A
C979        C987   1.386       .  A
C979        C996   1.419       .  A
C980        C995   1.425   1_455  A
C980        C988   1.388       .  A
C981        C993   1.417   1_455  A
C981        C989   1.387       .  A
C982        C996   1.414       .  A
C982        C990   1.386       .  A
C983        C991   1.384       .  A
C983        C994   1.412       .  A
C984        C992   1.389       .  A
C984        C995   1.421       .  A
C985        C986   1.374       .  A
C985        H997   1.082       .  S
C986        H998   1.082       .  S
C987        C988   1.376       .  A
C987        H999   1.082       .  S
C988       H1000   1.082       .  S
C989        C990   1.370       .  A
C989       H1001   1.082       .  S
C990       H1002   1.082       .  S
C991        C992   1.371       .  A
C991       H1003   1.082       .  S
C992       H1004   1.082       .  S
C993       C1255   1.504       .  S
C994       C1244   1.490       .  S
C995       C1283   1.511       .  S
C996       C1269   1.495       .  S
O1007      C1018   1.296   1_655  A
O1008      C1019   1.300       .  A
O1009      C1020   1.296       .  A
O1009     Eu1663   2.486       .  S
O1010      C1021   1.298       .  A
O1013      C1019   1.284       .  A
O1013     Eu1015   2.426   1_565  S
O1014      C1018   1.288       .  A
Eu1015     O1657   2.486   1_455  S
Eu1015     O1665   2.349   1_455  S
Eu1015     O1016   2.356   1_545  S
Eu1015     O2319   2.367   1_445  S
O1017     Eu1663   2.349       .  S
O1017     Eu2015   2.345       .  S
C1018      C1286   1.503   1_455  S
C1019      C1272   1.483       .  S
C1020      C1227   1.494       .  S
C1021      C1213   1.483       .  S
H1022      O1023   0.967       .  S
O1023     Eu2311   2.367   1_565  S
O1023     Eu2014   2.354       .  S
H1024      O1025   0.966       .  S
O1026      C1049   1.295       .  A
O1026     Eu1042   2.481   1_656  S
O1027      C1050   1.291       .  A
O1027     Eu1043   2.459   1_655  S
O1028      C1051   1.295       .  A
O1028     Eu1044   2.483       .  S
O1029      C1052   1.294       .  A
O1029     Eu1045   2.481       .  S
O1030      C1053   1.293       .  A
O1031      C1054   1.295       .  A
O1032      C1055   1.290       .  A
O1032     Eu2342   2.457       .  S
O1033      C1056   1.292   1_565  A
O1033     Eu1046   2.467   1_455  S
O1034      C1055   1.293   1_545  A
O1034     Eu1044   2.472   1_546  S
O1035      C1056   1.288       .  A
O1035     Eu1045   2.445   1_545  S
O1036      C1051   1.288       .  A
O1036     Eu2338   2.444       .  S
O1037      C1054   1.289   1_556  A
O1037     Eu2339   2.445       .  S
O1038      C1053   1.290       .  A
O1038     Eu1043   2.453       .  S
O1039      C1052   1.288   1_554  A
O1039     Eu1042   2.445       .  S
O1040      C1049   1.291       .  A
O1040     Eu1046   2.457       .  S
O1041      C1050   1.288       .  A
Eu1042     O2332   2.444   1_455  S
Eu1042     O1995   2.354   1_455  S
Eu1042     O1060   2.364   1_554  S
Eu1042     O2344   2.361   1_454  S
Eu1043     O2333   2.445   1_455  S
Eu1043     O1989   2.345   1_456  S
Eu1043     O1047   2.360       .  S
Eu1043     O2354   2.360   1_455  S
Eu1044     O1048   2.347   1_554  S
Eu1045     O1060   2.348       .  S
Eu1046     O2328   2.457       .  S
Eu1046     O1706   2.354   1_565  S
Eu1046     O1060   2.349   1_655  S
Eu1046     O2344   2.352       .  S
O1048     Eu2338   2.361   1_556  S
O1048     Eu2342   2.352       .  S
C1049      C1258   1.498       .  S
C1050      C1241   1.471       .  S
C1051      C1129   1.482       .  S
C1052      C1160   1.482       .  S
C1053      C1171   1.494       .  S
C1054      C1143   1.493   1_554  S
C1055      C1188   1.503       .  S
C1056      C1202   1.501       .  S
H1057      O1058   0.964       .  S
O1058     Eu2339   2.360       .  S
O1058     Eu1694   2.354       .  S
H1059      O1060   0.967       .  S
N1061      C1066   1.354       .  A
N1061      C1065   1.354       .  A
N1061      H1093   1.042       .  S
N1062      C1069   1.350       .  A
N1062      C1070   1.352       .  A
N1063      C1068   1.351       .  A
N1063      C1067   1.353       .  A
N1063      H1094   1.040       .  S
N1064      C1071   1.351       .  A
N1064      C1072   1.349       .  A
C1065      C1073   1.387       .  A
C1065      C1081   1.419       .  A
C1066      C1082   1.421       .  A
C1066      C1074   1.388       .  A
C1067      C1075   1.387       .  A
C1067      C1084   1.415       .  A
C1068      C1083   1.413       .  A
C1068      C1076   1.387       .  A
C1069      C1081   1.417       .  A
C1069      C1077   1.388       .  A
C1070      C1084   1.412       .  A
C1070      C1078   1.384       .  A
C1071      C1079   1.387       .  A
C1071      C1082   1.415       .  A
C1072      C1080   1.385       .  A
C1072      C1083   1.410       .  A
C1073      C1074   1.381       .  A
C1073      H1085   1.082       .  S
C1074      H1086   1.082       .  S
C1075      C1076   1.377       .  A
C1075      H1087   1.082       .  S
C1076      H1088   1.082       .  S
C1077      C1078   1.377       .  A
C1077      H1089   1.082       .  S
C1078      H1090   1.082       .  S
C1079      C1080   1.377       .  A
C1079      H1091   1.082       .  S
C1080      H1092   1.082       .  S
C1081      C1185   1.508       .  S
C1082      C1199   1.510       .  S
C1083      C1216   1.492       .  S
C1084      C1230   1.501       .  S
N1095      C1100   1.353       .  A
N1095      C1099   1.354       .  A
N1095      H1127   1.034   1_556  S
N1096      C1103   1.351   1_556  A
N1096      C1104   1.351   1_556  A
N1097      C1102   1.353       .  A
N1097      C1101   1.353       .  A
N1097      H1128   1.040   1_556  S
N1098      C1105   1.351       .  A
N1098      C1106   1.353       .  A
C1099      C1107   1.388       .  A
C1099      C1115   1.420       .  A
C1100      C1116   1.418       .  A
C1100      C1108   1.387       .  A
C1101      C1109   1.386       .  A
C1101      C1118   1.414       .  A
C1102      C1117   1.417       .  A
C1102      C1110   1.387       .  A
C1103      C1115   1.418   1_554  A
C1103      C1111   1.388       .  A
C1104      C1118   1.415   1_554  A
C1104      C1112   1.386       .  A
C1105      C1113   1.388   1_556  A
C1105      C1116   1.419       .  A
C1106      C1114   1.385   1_556  A
C1106      C1117   1.415       .  A
C1107      C1108   1.374       .  A
C1107      H1119   1.082       .  S
C1108      H1120   1.082       .  S
C1109      C1110   1.378       .  A
C1109      H1121   1.082       .  S
C1110      H1122   1.082       .  S
C1111      C1112   1.369       .  A
C1111      H1123   1.081       .  S
C1112      H1124   1.082       .  S
C1113      C1114   1.369       .  A
C1113      H1125   1.081       .  S
C1114      H1126   1.082       .  S
C1115      C1132   1.498       .  S
C1116      C1157   1.496       .  S
C1117      C1174   1.506       .  S
C1118      C1146   1.500       .  S
C1129      C1134   1.410   1_554  A
C1130      C1131   1.407       .  A
C1130      C1135   1.443       .  S
C1131      C1138   1.452       .  S
C1132      C1133   1.414       .  A
C1133      C1134   1.411       .  A
C1133      C1136   1.450       .  S
C1134      C1137   1.448       .  S
C1135      N1142   1.154       .  T
C1136      N1141   1.157       .  T
C1137      N1139   1.156       .  T
C1138      N1140   1.157       .  T
C1143      C1148   1.418       .  A
C1144      C1145   1.412       .  A
C1144      C1149   1.451       .  S
C1145      C1152   1.449       .  S
C1146      C1147   1.412       .  A
C1147      C1148   1.409       .  A
C1147      C1150   1.453       .  S
C1148      C1151   1.450       .  S
C1149      N1156   1.157       .  T
C1150      N1155   1.157       .  T
C1151      N1153   1.157       .  T
C1152      N1154   1.157       .  T
C1157      C1162   1.415       .  A
C1158      C1159   1.404       .  A
C1158      C1163   1.452       .  S
C1159      C1166   1.443       .  S
C1160      C1161   1.411       .  A
C1161      C1162   1.413       .  A
C1161      C1164   1.450       .  S
C1162      C1165   1.450       .  S
C1163      N1170   1.157       .  T
C1164      N1169   1.157       .  T
C1165      N1167   1.157       .  T
C1166      N1168   1.155       .  T
C1171      C1176   1.418       .  A
C1172      C1173   1.409       .  A
C1172      C1177   1.450       .  S
C1173      C1180   1.451       .  S
C1174      C1175   1.416       .  A
C1175      C1176   1.412       .  A
C1175      C1178   1.452       .  S
C1176      C1179   1.450       .  S
C1177      N1184   1.157       .  T
C1178      N1183   1.157       .  T
C1179      N1181   1.157       .  T
C1180      N1182   1.157       .  T
C1185      C1190   1.413       .  A
C1186      C1187   1.413       .  A
C1186      C1191   1.448       .  S
C1187      C1188   1.419       .  A
C1187      C1194   1.451       .  S
C1189      C1190   1.411       .  A
C1189      C1192   1.450       .  S
C1190      C1193   1.452       .  S
C1191      N1198   1.156       .  T
C1192      N1197   1.157       .  T
C1193      N1195   1.157       .  T
C1194      N1196   1.158       .  T
C1199      C1200   1.418       .  A
C1200      C1201   1.416       .  A
C1200      C1205   1.451       .  S
C1201      C1208   1.451       .  S
C1202      C1203   1.420   1_545  A
C1203      C1204   1.406       .  A
C1203      C1206   1.452       .  S
C1204      C1207   1.449       .  S
C1205      N1212   1.157       .  T
C1206      N1211   1.158       .  T
C1207      N1209   1.156       .  T
C1208      N1210   1.158       .  T
C1213      C1214   1.408       .  A
C1214      C1215   1.409       .  A
C1214      C1219   1.450       .  S
C1215      C1216   1.412       .  A
C1215      C1222   1.450       .  S
C1217      C1218   1.410       .  A
C1217      C1220   1.451       .  S
C1218      C1221   1.448       .  S
C1219      N1226   1.157       .  T
C1220      N1225   1.157       .  T
C1221      N1223   1.156       .  T
C1222      N1224   1.157       .  T
C1227      C1232   1.416       .  A
C1228      C1229   1.410       .  A
C1228      C1233   1.450       .  S
C1229      C1236   1.451       .  S
C1230      C1231   1.413       .  A
C1231      C1232   1.416       .  A
C1231      C1234   1.450       .  S
C1232      C1235   1.449       .  S
C1233      N1240   1.156       .  T
C1234      N1239   1.157       .  T
C1235      N1237   1.157       .  T
C1236      N1238   1.157       .  T
C1241      C1242   1.408   1_655  A
C1241      C2542   1.412       .  A
C1242      C1243   1.407       .  A
C1242      C1247   1.452       .  S
C1243      C1244   1.413   1_455  A
C1243      C1250   1.451       .  S
C1244      C2541   1.410       .  A
C1245      C2540   1.410       .  A
C1245      C1246   1.408       .  A
C1245      C1248   1.449       .  S
C1246      C2537   1.412       .  A
C1246      C1249   1.451       .  S
C1247      N1254   1.158       .  T
C1248      N1253   1.157       .  T
C1249      N1251   1.158       .  T
C1250      N1252   1.157       .  T
C1255      C1256   1.412   1_655  A
C1255      C2556   1.412       .  A
C1256      C1257   1.413       .  A
C1256      C1261   1.452       .  S
C1257      C1258   1.418   1_455  A
C1257      C1264   1.449       .  S
C1258      C2555   1.420       .  A
C1259      C2554   1.420       .  A
C1259      C1260   1.411       .  A
C1259      C1262   1.451       .  S
C1260      C2551   1.412       .  A
C1260      C1263   1.452       .  S
C1261      N1268   1.157       .  T
C1262      N1267   1.157       .  T
C1263      N1265   1.157       .  T
C1264      N1266   1.156       .  T
C1269      C1270   1.412       .  A
C1269      C2570   1.413   1_455  A
C1270      C1271   1.411       .  A
C1270      C1275   1.450       .  S
C1271      C1272   1.409       .  A
C1271      C1278   1.445       .  S
C1272      C2569   1.406   1_455  A
C1273      C2568   1.406       .  A
C1273      C1274   1.408       .  A
C1273      C1276   1.447       .  S
C1274      C2565   1.413       .  A
C1274      C1277   1.450       .  S
C1275      N1282   1.157       .  T
C1276      N1281   1.156       .  T
C1277      N1279   1.157       .  T
C1278      N1280   1.155       .  T
C1283      C1284   1.414   1_655  A
C1283      C2584   1.414       .  A
C1284      C1285   1.410       .  A
C1284      C1289   1.452       .  S
C1285      C1286   1.420   1_455  A
C1285      C1292   1.450       .  S
C1286      C2583   1.419       .  A
C1287      C2582   1.419       .  A
C1287      C1288   1.416       .  A
C1287      C1290   1.449       .  S
C1288      C2579   1.414       .  A
C1288      C1291   1.451       .  S
C1289      N1296   1.157       .  T
C1290      N1295   1.157       .  T
C1291      N1293   1.157       .  T
C1292      N1294   1.158       .  T
N1297      C1302   1.351       .  A
N1297      C1301   1.355       .  A
N1297      H1329   1.037       .  S
N1298      C1305   1.352       .  A
N1298      C1306   1.350       .  A
N1299      C1304   1.358       .  A
N1299      C1303   1.355       .  A
N1299      H1330   1.037       .  S
N1300      C1307   1.350       .  A
N1300      C1308   1.352       .  A
C1301      C1309   1.388       .  A
C1301      C1317   1.419       .  A
C1302      C1318   1.413       .  A
C1302      C1310   1.386       .  A
C1303      C1311   1.386       .  A
C1303      C1320   1.419       .  A
C1304      C1319   1.425       .  A
C1304      C1312   1.388       .  A
C1305      C1317   1.417       .  A
C1305      C1313   1.387       .  A
C1306      C1320   1.414       .  A
C1306      C1314   1.386       .  A
C1307      C1315   1.384       .  A
C1307      C1318   1.412       .  A
C1308      C1316   1.389       .  A
C1308      C1319   1.421       .  A
C1309      C1310   1.374       .  A
C1309      H1321   1.082       .  S
C1310      H1322   1.082       .  S
C1311      C1312   1.376       .  A
C1311      H1323   1.082       .  S
C1312      H1324   1.082       .  S
C1313      C1314   1.370       .  A
C1313      H1325   1.082       .  S
C1314      H1326   1.082       .  S
C1315      C1316   1.371       .  A
C1315      H1327   1.082       .  S
C1316      H1328   1.082       .  S
C1317      C1579   1.504       .  S
C1318      C1568   1.490       .  S
C1319      C1607   1.511       .  S
C1320      C1593   1.495       .  S
O1331      C1342   1.296       .  A
O1331     Eu1691   2.490   1_554  S
O1332      C1343   1.300       .  A
O1332     Eu1690   2.510       .  S
O1333      C1344   1.296       .  A
O1334      C1345   1.298       .  A
O1334     Eu1987   2.496       .  S
O1335      C1993   1.286       .  A
O1335     Eu1693   2.430   1_554  S
O1336      C1992   1.291       .  A
O1336     Eu1692   2.452       .  S
O1337      C1343   1.284       .  A
O1337     Eu1339   2.426       .  S
O1338      C1342   1.288       .  A
O1338     Eu1987   2.443       .  S
Eu1339     O1982   2.496       .  S
Eu1339     O1986   2.443       .  S
Eu1339     O1997   2.353       .  S
Eu1339     O1340   2.356       .  S
O1340     Eu1693   2.357   1_554  S
O1340     Eu1690   2.349       .  S
O1341     Eu2340   2.359   1_545  S
C1342      C1610   1.503       .  S
C1343      C1596   1.483       .  S
C1344      C1551   1.494       .  S
C1344      O1984   1.291       .  A
C1345      C1537   1.483       .  S
C1345      O1983   1.286       .  A
H1346      O1347   0.966       .  S
O1347     Eu1692   2.366       .  S
H1348      O1349   0.967       .  S
O1349     Eu1987   2.352       .  S
O1349     Eu1691   2.350   1_554  S
O1349     Eu2341   2.368   1_544  S
O1350      C1373   1.295       .  A
O1350     Eu1366   2.481       .  S
O1351      C1374   1.291       .  A
O1351     Eu1367   2.459       .  S
O1352      C1375   1.295       .  A
O1352     Eu1368   2.483       .  S
O1353      C1376   1.294       .  A
O1353     Eu1369   2.481       .  S
O1354      C1377   1.293       .  A
O1354     Eu2017   2.466   1_545  S
O1355      C1378   1.295       .  A
O1355     Eu2016   2.477   1_545  S
O1356      C1379   1.290       .  A
O1357      C1380   1.292       .  A
O1357     Eu1370   2.467       .  S
O1358      C1379   1.293       .  A
O1358     Eu1368   2.472       .  S
O1359      C1380   1.288       .  A
O1359     Eu1369   2.445       .  S
O1360      C1375   1.288       .  A
O1361      C1378   1.289       .  A
O1362      C1377   1.290       .  A
O1362     Eu1367   2.453       .  S
O1363      C1376   1.288       .  A
O1363     Eu1366   2.445       .  S
O1364      C1373   1.291       .  A
O1364     Eu1370   2.457       .  S
O1365      C1374   1.288       .  A
O1365     Eu2018   2.446   1_545  S
Eu1366     O1656   2.510       .  S
Eu1366     O1664   2.349       .  S
Eu1366     O1384   2.364       .  S
Eu1367     O1655   2.490       .  S
Eu1367     O1673   2.350       .  S
Eu1367     O1371   2.360       .  S
Eu1368     O1660   2.452       .  S
Eu1368     O2003   2.477       .  S
Eu1368     O2313   2.359       .  S
Eu1368     O1671   2.366       .  S
Eu1368     O2030   2.344       .  S
Eu1368     O1372   2.347       .  S
Eu1369     O1659   2.430       .  S
Eu1369     O2002   2.466       .  S
Eu1369     O1664   2.357       .  S
Eu1369     O2321   2.368       .  S
Eu1369     O2019   2.343       .  S
Eu1369     O1384   2.348       .  S
Eu1370     O2013   2.446       .  S
Eu1370     O2019   2.353       .  S
Eu1370     O1384   2.350       .  S
O1371     Eu2017   2.343   1_545  S
O1371     Eu2018   2.353   1_545  S
C1373      C1582   1.498       .  S
C1374      C1565   1.471       .  S
C1375      C1453   1.482       .  S
C1376      C1484   1.482       .  S
C1377      C1495   1.494       .  S
C1378      C1467   1.493       .  S
C1379      C1512   1.503       .  S
C1380      C1526   1.501       .  S
H1381      O1382   0.964       .  S
O1382     Eu2016   2.344   1_545  S
H1383      O1384   0.967       .  S
N1385      C1390   1.354   1_565  A
N1385      C1389   1.354   1_565  A
N1385      H1417   1.042       .  S
N1386      C1393   1.350       .  A
N1386      C1394   1.352       .  A
N1387      C1392   1.351   1_565  A
N1387      C1391   1.353   1_565  A
N1387      H1418   1.040       .  S
N1388      C1395   1.351   1_545  A
N1388      C1396   1.349   1_545  A
C1389      C1397   1.387       .  A
C1389      C1405   1.419   1_545  A
C1390      C1406   1.421       .  A
C1390      C1398   1.388       .  A
C1391      C1399   1.387       .  A
C1391      C1408   1.415   1_545  A
C1392      C1407   1.413   1_545  A
C1392      C1400   1.387       .  A
C1393      C1405   1.417       .  A
C1393      C1401   1.388       .  A
C1394      C1408   1.412       .  A
C1394      C1402   1.384       .  A
C1395      C1403   1.387       .  A
C1395      C1406   1.415   1_565  A
C1396      C1404   1.385       .  A
C1396      C1407   1.410       .  A
C1397      C1398   1.381       .  A
C1397      H1409   1.082       .  S
C1398      H1410   1.082       .  S
C1399      C1400   1.377       .  A
C1399      H1411   1.082       .  S
C1400      H1412   1.082       .  S
C1401      C1402   1.377       .  A
C1401      H1413   1.082       .  S
C1402      H1414   1.082       .  S
C1403      C1404   1.377       .  A
C1403      H1415   1.082       .  S
C1404      H1416   1.082       .  S
C1405      C1509   1.508   1_565  S
C1406      C1523   1.510       .  S
C1407      C1540   1.492   1_565  S
C1408      C1554   1.501       .  S
N1419      C1424   1.353       .  A
N1419      C1423   1.354       .  A
N1419      H1451   1.034       .  S
N1420      C1427   1.351       .  A
N1420      C1428   1.351       .  A
N1421      C1426   1.353       .  A
N1421      C1425   1.353       .  A
N1421      H1452   1.040       .  S
N1422      C1429   1.351       .  A
N1422      C1430   1.353       .  A
C1423      C1431   1.388       .  A
C1423      C1439   1.420       .  A
C1424      C1440   1.418       .  A
C1424      C1432   1.387       .  A
C1425      C1433   1.386       .  A
C1425      C1442   1.414       .  A
C1426      C1441   1.417       .  A
C1426      C1434   1.387       .  A
C1427      C1439   1.418       .  A
C1427      C1435   1.388       .  A
C1428      C1442   1.415       .  A
C1428      C1436   1.386       .  A
C1429      C1437   1.388       .  A
C1429      C1440   1.419       .  A
C1430      C1438   1.385       .  A
C1430      C1441   1.415       .  A
C1431      C1432   1.374       .  A
C1431      H1443   1.082       .  S
C1432      H1444   1.082       .  S
C1433      C1434   1.377       .  A
C1433      H1445   1.082       .  S
C1434      H1446   1.082       .  S
C1435      C1436   1.369       .  A
C1435      H1447   1.081       .  S
C1436      H1448   1.082       .  S
C1437      C1438   1.369       .  A
C1437      H1449   1.081       .  S
C1438      H1450   1.082       .  S
C1439      C1456   1.498       .  S
C1440      C1481   1.496       .  S
C1441      C1498   1.506       .  S
C1442      C1470   1.500       .  S
C1453      C1778   1.409       .  A
C1453      C1458   1.410       .  A
C1454      C1777   1.409       .  A
C1454      C1455   1.407       .  A
C1454      C1459   1.443       .  S
C1455      C1780   1.411   1_554  A
C1455      C1462   1.452       .  S
C1456      C1779   1.411       .  A
C1456      C1457   1.414       .  A
C1457      C1458   1.411       .  A
C1457      C1460   1.450       .  S
C1458      C1461   1.448       .  S
C1459      N1466   1.154       .  T
C1460      N1465   1.157       .  T
C1461      N1463   1.156       .  T
C1462      N1464   1.157       .  T
C1467      C1792   1.415       .  A
C1467      C1472   1.418       .  A
C1468      C1791   1.415   1_554  A
C1468      C1469   1.412       .  A
C1468      C1473   1.451       .  S
C1469      C1794   1.413   1_554  A
C1469      C1476   1.449       .  S
C1470      C1793   1.413       .  A
C1470      C1471   1.412       .  A
C1471      C1472   1.409       .  A
C1471      C1474   1.453       .  S
C1472      C1475   1.450       .  S
C1473      N1480   1.157       .  T
C1474      N1479   1.157       .  T
C1475      N1477   1.157       .  T
C1476      N1478   1.157       .  T
C1481      C1806   1.410       .  A
C1481      C1486   1.415       .  A
C1482      C1805   1.410   1_554  A
C1482      C1483   1.404       .  A
C1482      C1487   1.452       .  S
C1483      C1808   1.408   1_554  A
C1483      C1490   1.443       .  S
C1484      C1807   1.408       .  A
C1484      C1485   1.411       .  A
C1485      C1486   1.413       .  A
C1485      C1488   1.450       .  S
C1486      C1489   1.450       .  S
C1487      N1494   1.157       .  T
C1488      N1493   1.157       .  T
C1489      N1491   1.157       .  T
C1490      N1492   1.155       .  T
C1495      C1820   1.416       .  A
C1495      C1500   1.418       .  A
C1496      C1819   1.416   1_554  A
C1496      C1497   1.409       .  A
C1496      C1501   1.450       .  S
C1497      C1822   1.414   1_554  A
C1497      C1504   1.451       .  S
C1498      C1821   1.414       .  A
C1498      C1499   1.416       .  A
C1499      C1500   1.412       .  A
C1499      C1502   1.452       .  S
C1500      C1503   1.450       .  S
C1501      N1508   1.157       .  T
C1502      N1507   1.157       .  T
C1503      N1505   1.157       .  T
C1504      N1506   1.157       .  T
C1509      C2158   1.414   1_545  A
C1509      C1514   1.413       .  A
C1510      C2157   1.414       .  A
C1510      C1511   1.413       .  A
C1510      C1515   1.448       .  S
C1511      C1512   1.419       .  A
C1511      C1518   1.451       .  S
C1512      C2161   1.421       .  A
C1513      C2160   1.421   1_545  A
C1513      C1514   1.411       .  A
C1513      C1516   1.450       .  S
C1514      C1517   1.452       .  S
C1515      N1522   1.156       .  T
C1516      N1521   1.157       .  T
C1517      N1519   1.157       .  T
C1518      N1520   1.158       .  T
C1523      C1524   1.418       .  A
C1523      C2176   1.412   1_545  A
C1524      C1525   1.416       .  A
C1524      C1529   1.451       .  S
C1525      C2174   1.421       .  A
C1525      C1532   1.451       .  S
C1526      C2173   1.421       .  A
C1526      C1527   1.420       .  A
C1527      C1528   1.406       .  A
C1527      C1530   1.452       .  S
C1528      C2171   1.412       .  A
C1528      C1531   1.449       .  S
C1529      N1536   1.157       .  T
C1530      N1535   1.158       .  T
C1531      N1533   1.156       .  T
C1532      N1534   1.158       .  T
C1537      C1538   1.408       .  A
C1537      C2190   1.413   1_545  A
C1538      C1539   1.409       .  A
C1538      C1543   1.450       .  S
C1539      C1540   1.412       .  A
C1539      C1546   1.450       .  S
C1540      C2189   1.411   1_545  A
C1541      C2188   1.411       .  A
C1541      C1542   1.410       .  A
C1541      C1544   1.451       .  S
C1542      C2185   1.413       .  A
C1542      C1545   1.448       .  S
C1543      N1550   1.157       .  T
C1544      N1549   1.157       .  T
C1545      N1547   1.156       .  T
C1546      N1548   1.157       .  T
C1551      C2200   1.417   1_545  A
C1551      C1556   1.416       .  A
C1552      C2199   1.417       .  A
C1552      C1553   1.410       .  A
C1552      C1557   1.450       .  S
C1553      C2202   1.410       .  A
C1553      C1560   1.451       .  S
C1554      C2201   1.410       .  A
C1554      C1555   1.413   1_565  A
C1555      C1556   1.416       .  A
C1555      C1558   1.450       .  S
C1556      C1559   1.449       .  S
C1557      N1564   1.156       .  T
C1558      N1563   1.157       .  T
C1559      N1561   1.157       .  T
C1560      N1562   1.157       .  T
C1565      C1566   1.408       .  A
C1566      C1567   1.407       .  A
C1566      C1571   1.452       .  S
C1567      C1568   1.413       .  A
C1567      C1574   1.451       .  S
C1569      C1570   1.408       .  A
C1569      C1572   1.449       .  S
C1570      C1573   1.451       .  S
C1571      N1578   1.158       .  T
C1572      N1577   1.157       .  T
C1573      N1575   1.158       .  T
C1574      N1576   1.157       .  T
C1579      C1580   1.412       .  A
C1580      C1581   1.413       .  A
C1580      C1585   1.452       .  S
C1581      C1582   1.418       .  A
C1581      C1588   1.449       .  S
C1583      C1584   1.411       .  A
C1583      C1586   1.451       .  S
C1584      C1587   1.452       .  S
C1585      N1592   1.157       .  T
C1586      N1591   1.157       .  T
C1587      N1589   1.157       .  T
C1588      N1590   1.156       .  T
C1593      C1594   1.412       .  A
C1594      C1595   1.411       .  A
C1594      C1599   1.450       .  S
C1595      C1596   1.409       .  A
C1595      C1602   1.445       .  S
C1597      C1598   1.408       .  A
C1597      C1600   1.447       .  S
C1598      C1601   1.450       .  S
C1599      N1606   1.157       .  T
C1600      N1605   1.156       .  T
C1601      N1603   1.157       .  T
C1602      N1604   1.155       .  T
C1607      C1608   1.414       .  A
C1608      C1609   1.410       .  A
C1608      C1613   1.452       .  S
C1609      C1610   1.420       .  A
C1609      C1616   1.450       .  S
C1611      C1612   1.416       .  A
C1611      C1614   1.449       .  S
C1612      C1615   1.451       .  S
C1613      N1620   1.157       .  T
C1614      N1619   1.157       .  T
C1615      N1617   1.157       .  T
C1616      N1618   1.158       .  T
N1621      C1626   1.351       .  A
N1621      C1625   1.355       .  A
N1621      H1653   1.037       .  S
N1622      C1629   1.352       .  A
N1622      C1630   1.350       .  A
N1623      C1628   1.358       .  A
N1623      C1627   1.355       .  A
N1623      H1654   1.037       .  S
N1624      C1631   1.350       .  A
N1624      C1632   1.352       .  A
C1625      C1633   1.388       .  A
C1625      C1641   1.419       .  A
C1626      C1642   1.413       .  A
C1626      C1634   1.386       .  A
C1627      C1635   1.386       .  A
C1627      C1644   1.419       .  A
C1628      C1643   1.425       .  A
C1628      C1636   1.388       .  A
C1629      C1641   1.417       .  A
C1629      C1637   1.387       .  A
C1630      C1644   1.414       .  A
C1630      C1638   1.386       .  A
C1631      C1639   1.384       .  A
C1631      C1642   1.412       .  A
C1632      C1640   1.389       .  A
C1632      C1643   1.421       .  A
C1633      C1634   1.374       .  A
C1633      H1645   1.082       .  S
C1634      H1646   1.082       .  S
C1635      C1636   1.376       .  A
C1635      H1647   1.082       .  S
C1636      H1648   1.082       .  S
C1637      C1638   1.370       .  A
C1637      H1649   1.082       .  S
C1638      H1650   1.082       .  S
C1639      C1640   1.371       .  A
C1639      H1651   1.082       .  S
C1640      H1652   1.082       .  S
C1641      C1903   1.504       .  S
C1642      C1892   1.490       .  S
C1643      C1931   1.511       .  S
C1644      C1917   1.495       .  S
O1655      C1666   1.296       .  A
O1656      C1667   1.300       .  A
O1657      C1668   1.296       .  A
O1658      C1669   1.298       .  A
O1658     Eu2311   2.496       .  S
O1659      C2317   1.286       .  A
O1660      C2316   1.291       .  A
O1661      C1667   1.284       .  A
O1661     Eu1663   2.426       .  S
O1662      C1666   1.288       .  A
O1662     Eu2311   2.443       .  S
Eu1663     O2306   2.496       .  S
Eu1663     O2310   2.443       .  S
Eu1663     O2321   2.353       .  S
Eu1663     O1664   2.356       .  S
O1665     Eu2016   2.359   1_545  S
C1666      C1934   1.503       .  S
C1667      C1920   1.483       .  S
C1668      C1875   1.494       .  S
C1668      O2308   1.291       .  A
C1669      C1861   1.483       .  S
C1669      O2307   1.286       .  A
H1670      O1671   0.966       .  S
H1672      O1673   0.967       .  S
O1673     Eu2311   2.352       .  S
O1673     Eu2017   2.368   1_545  S
O1674      C1697   1.295       .  A
O1674     Eu1690   2.481   1_556  S
O1675      C1698   1.291       .  A
O1675     Eu1691   2.459       .  S
O1676      C1699   1.295       .  A
O1676     Eu1692   2.483       .  S
O1677      C1700   1.294       .  A
O1677     Eu1693   2.481       .  S
O1678      C1701   1.293       .  A
O1678     Eu2341   2.466   1_545  S
O1679      C1702   1.295       .  A
O1679     Eu2340   2.477   1_545  S
O1680      C1703   1.290       .  A
O1681      C1704   1.292       .  A
O1681     Eu1694   2.467       .  S
O1682      C1703   1.293       .  A
O1682     Eu1692   2.472   1_556  S
O1683      C1704   1.288       .  A
O1683     Eu1693   2.445       .  S
O1684      C1699   1.288       .  A
O1685      C1702   1.289   1_556  A
O1686      C1701   1.290       .  A
O1686     Eu1691   2.453       .  S
O1687      C1700   1.288   1_554  A
O1687     Eu1690   2.445       .  S
O1688      C1697   1.291       .  A
O1688     Eu1694   2.457       .  S
O1689      C1698   1.288       .  A
O1689     Eu2342   2.446   1_545  S
Eu1690     O1708   2.364   1_554  S
Eu1691     O1695   2.360       .  S
Eu1692     O2327   2.477       .  S
Eu1692     O1989   2.359       .  S
Eu1692     O2354   2.344   1_554  S
Eu1692     O1696   2.347   1_554  S
Eu1693     O2326   2.466       .  S
Eu1693     O1997   2.368   1_556  S
Eu1693     O2343   2.343       .  S
Eu1693     O1708   2.348       .  S
Eu1694     O2337   2.446       .  S
Eu1694     O2343   2.353       .  S
Eu1694     O1708   2.350       .  S
O1695     Eu2341   2.343   1_545  S
O1695     Eu2342   2.353   1_545  S
C1697      C1906   1.498       .  S
C1698      C1889   1.471       .  S
C1699      C1777   1.482       .  S
C1700      C1808   1.482       .  S
C1701      C1819   1.494       .  S
C1702      C1791   1.493   1_554  S
C1703      C1836   1.503       .  S
C1704      C1850   1.501       .  S
H1705      O1706   0.964       .  S
O1706     Eu2340   2.344   1_546  S
H1707      O1708   0.967       .  S
N1709      C1714   1.354   1_565  A
N1709      C1713   1.354   1_565  A
N1709      H1741   1.042       .  S
N1710      C1717   1.350       .  A
N1710      C1718   1.352       .  A
N1711      C1716   1.351   1_565  A
N1711      C1715   1.353   1_565  A
N1711      H1742   1.040       .  S
N1712      C1719   1.351   1_545  A
N1712      C1720   1.349   1_545  A
C1713      C1721   1.387       .  A
C1713      C1729   1.419   1_545  A
C1714      C1730   1.421       .  A
C1714      C1722   1.388       .  A
C1715      C1723   1.387       .  A
C1715      C1732   1.415   1_545  A
C1716      C1731   1.413   1_545  A
C1716      C1724   1.387       .  A
C1717      C1729   1.417       .  A
C1717      C1725   1.388       .  A
C1718      C1732   1.412       .  A
C1718      C1726   1.384       .  A
C1719      C1727   1.387       .  A
C1719      C1730   1.415   1_565  A
C1720      C1728   1.385       .  A
C1720      C1731   1.410       .  A
C1721      C1722   1.381       .  A
C1721      H1733   1.082       .  S
C1722      H1734   1.082       .  S
C1723      C1724   1.377       .  A
C1723      H1735   1.082       .  S
C1724      H1736   1.082       .  S
C1725      C1726   1.377       .  A
C1725      H1737   1.082       .  S
C1726      H1738   1.082       .  S
C1727      C1728   1.377       .  A
C1727      H1739   1.082       .  S
C1728      H1740   1.082       .  S
C1729      C1833   1.508   1_565  S
C1730      C1847   1.510       .  S
C1731      C1864   1.492   1_565  S
C1732      C1878   1.501       .  S
N1743      C1748   1.353       .  A
N1743      C1747   1.354       .  A
N1743      H1775   1.034   1_556  S
N1744      C1751   1.351   1_556  A
N1744      C1752   1.351   1_556  A
N1745      C1750   1.353       .  A
N1745      C1749   1.353       .  A
N1745      H1776   1.040   1_556  S
N1746      C1753   1.351       .  A
N1746      C1754   1.353       .  A
C1747      C1755   1.388       .  A
C1747      C1763   1.420       .  A
C1748      C1764   1.418       .  A
C1748      C1756   1.387       .  A
C1749      C1757   1.386       .  A
C1749      C1766   1.414       .  A
C1750      C1765   1.417       .  A
C1750      C1758   1.387       .  A
C1751      C1763   1.418   1_554  A
C1751      C1759   1.388       .  A
C1752      C1766   1.415   1_554  A
C1752      C1760   1.386       .  A
C1753      C1761   1.388   1_556  A
C1753      C1764   1.419       .  A
C1754      C1762   1.385   1_556  A
C1754      C1765   1.415       .  A
C1755      C1756   1.374       .  A
C1755      H1767   1.082       .  S
C1756      H1768   1.082       .  S
C1757      C1758   1.377       .  A
C1757      H1769   1.082       .  S
C1758      H1770   1.082       .  S
C1759      C1760   1.369       .  A
C1759      H1771   1.081       .  S
C1760      H1772   1.082       .  S
C1761      C1762   1.369       .  A
C1761      H1773   1.081       .  S
C1762      H1774   1.082       .  S
C1763      C1780   1.498       .  S
C1764      C1805   1.496       .  S
C1765      C1822   1.506       .  S
C1766      C1794   1.500       .  S
C1777      C1782   1.410   1_554  A
C1778      C1779   1.407       .  A
C1778      C1783   1.443       .  S
C1779      C1786   1.452       .  S
C1780      C1781   1.414       .  A
C1781      C1782   1.411       .  A
C1781      C1784   1.450       .  S
C1782      C1785   1.448       .  S
C1783      N1790   1.154       .  T
C1784      N1789   1.157       .  T
C1785      N1787   1.156       .  T
C1786      N1788   1.157       .  T
C1791      C1796   1.418       .  A
C1792      C1793   1.412       .  A
C1792      C1797   1.452       .  S
C1793      C1800   1.449       .  S
C1794      C1795   1.412       .  A
C1795      C1796   1.409       .  A
C1795      C1798   1.453       .  S
C1796      C1799   1.450       .  S
C1797      N1804   1.157       .  T
C1798      N1803   1.157       .  T
C1799      N1801   1.157       .  T
C1800      N1802   1.157       .  T
C1805      C1810   1.415       .  A
C1806      C1807   1.404       .  A
C1806      C1811   1.452       .  S
C1807      C1814   1.443       .  S
C1808      C1809   1.411       .  A
C1809      C1810   1.413       .  A
C1809      C1812   1.450       .  S
C1810      C1813   1.450       .  S
C1811      N1818   1.157       .  T
C1812      N1817   1.157       .  T
C1813      N1815   1.157       .  T
C1814      N1816   1.155       .  T
C1819      C1824   1.418       .  A
C1820      C1821   1.409       .  A
C1820      C1825   1.450       .  S
C1821      C1828   1.451       .  S
C1822      C1823   1.416       .  A
C1823      C1824   1.412       .  A
C1823      C1826   1.452       .  S
C1824      C1827   1.450       .  S
C1825      N1832   1.157       .  T
C1826      N1831   1.157       .  T
C1827      N1829   1.157       .  T
C1828      N1830   1.157       .  T
C1833      C2482   1.414   1_545  A
C1833      C1838   1.413       .  A
C1834      C2481   1.414       .  A
C1834      C1835   1.413       .  A
C1834      C1839   1.448       .  S
C1835      C1836   1.419       .  A
C1835      C1842   1.451       .  S
C1836      C2485   1.421       .  A
C1837      C2484   1.421   1_545  A
C1837      C1838   1.411       .  A
C1837      C1840   1.450       .  S
C1838      C1841   1.452       .  S
C1839      N1846   1.156       .  T
C1840      N1845   1.157       .  T
C1841      N1843   1.157       .  T
C1842      N1844   1.158       .  T
C1847      C1848   1.418       .  A
C1847      C2500   1.412   1_545  A
C1848      C1849   1.416       .  A
C1848      C1853   1.451       .  S
C1849      C2498   1.421       .  A
C1849      C1856   1.451       .  S
C1850      C2497   1.421       .  A
C1850      C1851   1.420       .  A
C1851      C1852   1.406       .  A
C1851      C1854   1.452       .  S
C1852      C2495   1.412       .  A
C1852      C1855   1.449       .  S
C1853      N1860   1.157       .  T
C1854      N1859   1.158       .  T
C1855      N1857   1.156       .  T
C1856      N1858   1.158       .  T
C1861      C1862   1.408       .  A
C1861      C2514   1.413   1_545  A
C1862      C1863   1.409       .  A
C1862      C1867   1.450       .  S
C1863      C1864   1.412       .  A
C1863      C1870   1.450       .  S
C1864      C2513   1.411   1_545  A
C1865      C2512   1.411       .  A
C1865      C1866   1.410       .  A
C1865      C1868   1.451       .  S
C1866      C2509   1.413       .  A
C1866      C1869   1.448       .  S
C1867      N1874   1.157       .  T
C1868      N1873   1.157       .  T
C1869      N1871   1.156       .  T
C1870      N1872   1.157       .  T
C1875      C2524   1.417   1_545  A
C1875      C1880   1.416       .  A
C1876      C2523   1.417       .  A
C1876      C1877   1.410       .  A
C1876      C1881   1.450       .  S
C1877      C2526   1.410       .  A
C1877      C1884   1.451       .  S
C1878      C2525   1.410       .  A
C1878      C1879   1.413   1_565  A
C1879      C1880   1.416       .  A
C1879      C1882   1.450       .  S
C1880      C1883   1.449       .  S
C1881      N1888   1.156       .  T
C1882      N1887   1.157       .  T
C1883      N1885   1.157       .  T
C1884      N1886   1.157       .  T
C1889      C1890   1.408       .  A
C1890      C1891   1.407       .  A
C1890      C1895   1.452       .  S
C1891      C1892   1.413       .  A
C1891      C1898   1.451       .  S
C1893      C1894   1.408       .  A
C1893      C1896   1.449       .  S
C1894      C1897   1.451       .  S
C1895      N1902   1.158       .  T
C1896      N1901   1.157       .  T
C1897      N1899   1.158       .  T
C1898      N1900   1.157       .  T
C1903      C1904   1.412       .  A
C1904      C1905   1.413       .  A
C1904      C1909   1.452       .  S
C1905      C1906   1.418       .  A
C1905      C1912   1.449       .  S
C1907      C1908   1.411       .  A
C1907      C1910   1.451       .  S
C1908      C1911   1.452       .  S
C1909      N1916   1.157       .  T
C1910      N1915   1.157       .  T
C1911      N1913   1.157       .  T
C1912      N1914   1.156       .  T
C1917      C1918   1.412       .  A
C1918      C1919   1.411       .  A
C1918      C1923   1.450       .  S
C1919      C1920   1.409       .  A
C1919      C1926   1.445       .  S
C1921      C1922   1.408       .  A
C1921      C1924   1.447       .  S
C1922      C1925   1.450       .  S
C1923      N1930   1.157       .  T
C1924      N1929   1.156       .  T
C1925      N1927   1.157       .  T
C1926      N1928   1.155       .  T
C1931      C1932   1.414       .  A
C1932      C1933   1.410       .  A
C1932      C1937   1.452       .  S
C1933      C1934   1.420       .  A
C1933      C1940   1.450       .  S
C1935      C1936   1.416       .  A
C1935      C1938   1.449       .  S
C1936      C1939   1.451       .  S
C1937      N1944   1.157       .  T
C1938      N1943   1.157       .  T
C1939      N1941   1.157       .  T
C1940      N1942   1.158       .  T
N1945      C1950   1.351       .  A
N1945      C1949   1.355       .  A
N1945      H1977   1.037       .  S
N1946      C1953   1.352       .  A
N1946      C1954   1.350       .  A
N1947      C1952   1.358       .  A
N1947      C1951   1.355       .  A
N1947      H1978   1.036       .  S
N1948      C1955   1.350       .  A
N1948      C1956   1.352       .  A
C1949      C1957   1.388       .  A
C1949      C1965   1.419       .  A
C1950      C1966   1.413       .  A
C1950      C1958   1.386       .  A
C1951      C1959   1.386       .  A
C1951      C1968   1.419       .  A
C1952      C1967   1.425       .  A
C1952      C1960   1.388       .  A
C1953      C1965   1.417       .  A
C1953      C1961   1.387       .  A
C1954      C1968   1.414       .  A
C1954      C1962   1.386       .  A
C1955      C1963   1.384       .  A
C1955      C1966   1.412       .  A
C1956      C1964   1.389       .  A
C1956      C1967   1.421       .  A
C1957      C1958   1.374       .  A
C1957      H1969   1.082       .  S
C1958      H1970   1.082       .  S
C1959      C1960   1.376       .  A
C1959      H1971   1.082       .  S
C1960      H1972   1.082       .  S
C1961      C1962   1.370       .  A
C1961      H1973   1.082       .  S
C1962      H1974   1.082       .  S
C1963      C1964   1.371       .  A
C1963      H1975   1.082       .  S
C1964      H1976   1.082       .  S
C1965      C2227   1.504       .  S
C1966      C2216   1.490       .  S
C1967      C2255   1.511       .  S
C1968      C2241   1.495       .  S
O1979      C1990   1.296       .  A
O1979     Eu2339   2.490   1_554  S
O1980      C1991   1.300       .  A
O1980     Eu2338   2.510       .  S
O1981      C1992   1.296       .  A
O1982      C1993   1.298       .  A
O1983     Eu2341   2.430   1_544  S
O1984     Eu2340   2.452   1_545  S
O1985      C1991   1.284       .  A
O1985     Eu1987   2.426   1_565  S
O1986      C1990   1.288       .  A
Eu1987     O1988   2.356   1_545  S
O1988     Eu2341   2.357   1_554  S
O1988     Eu2338   2.349       .  S
C1990      C2258   1.503       .  S
C1991      C2244   1.483       .  S
C1992      C2199   1.494       .  S
C1993      C2185   1.483       .  S
H1994      O1995   0.967       .  S
O1995     Eu2340   2.366       .  S
H1996      O1997   0.966       .  S
O1997     Eu2339   2.350   1_554  S
O1998      C2021   1.295       .  A
O1998     Eu2014   2.481       .  S
O1999      C2022   1.291       .  A
O1999     Eu2015   2.459       .  S
O2000      C2023   1.295       .  A
O2000     Eu2016   2.483       .  S
O2001      C2024   1.294       .  A
O2001     Eu2017   2.481       .  S
O2002      C2025   1.293       .  A
O2003      C2026   1.295       .  A
O2004      C2027   1.290       .  A
O2005      C2028   1.292   1_565  A
O2005     Eu2018   2.467       .  S
O2006      C2027   1.293   1_545  A
O2006     Eu2016   2.472   1_545  S
O2007      C2028   1.288       .  A
O2007     Eu2017   2.445   1_545  S
O2008      C2023   1.288       .  A
O2009      C2026   1.289       .  A
O2010      C2025   1.290       .  A
O2010     Eu2015   2.453       .  S
O2011      C2024   1.288       .  A
O2011     Eu2014   2.445       .  S
O2012      C2021   1.291       .  A
O2012     Eu2018   2.457       .  S
O2013      C2022   1.288       .  A
Eu2014     O2304   2.510       .  S
Eu2014     O2312   2.349       .  S
Eu2014     O2032   2.364       .  S
Eu2015     O2303   2.490       .  S
Eu2015     O2321   2.350       .  S
Eu2015     O2019   2.360       .  S
Eu2016     O2308   2.452   1_565  S
Eu2016     O2319   2.366       .  S
Eu2016     O2020   2.347       .  S
Eu2017     O2307   2.430   1_565  S
Eu2017     O2312   2.357       .  S
Eu2017     O2032   2.348       .  S
Eu2018     O2032   2.349       .  S
C2021      C2230   1.498       .  S
C2022      C2213   1.471       .  S
C2023      C2101   1.482       .  S
C2024      C2132   1.482       .  S
C2025      C2143   1.494       .  S
C2026      C2115   1.493       .  S
C2027      C2160   1.503       .  S
C2028      C2174   1.501       .  S
H2029      O2030   0.964       .  S
H2031      O2032   0.967       .  S
N2033      C2038   1.354       .  A
N2033      C2037   1.354       .  A
N2033      H2065   1.042       .  S
N2034      C2041   1.350       .  A
N2034      C2042   1.352       .  A
N2035      C2040   1.351       .  A
N2035      C2039   1.353       .  A
N2035      H2066   1.040       .  S
N2036      C2043   1.351       .  A
N2036      C2044   1.349       .  A
C2037      C2045   1.387       .  A
C2037      C2053   1.419       .  A
C2038      C2054   1.421       .  A
C2038      C2046   1.388       .  A
C2039      C2047   1.387       .  A
C2039      C2056   1.415       .  A
C2040      C2055   1.413       .  A
C2040      C2048   1.387       .  A
C2041      C2053   1.417       .  A
C2041      C2049   1.388       .  A
C2042      C2056   1.412       .  A
C2042      C2050   1.384       .  A
C2043      C2051   1.387       .  A
C2043      C2054   1.415       .  A
C2044      C2052   1.385       .  A
C2044      C2055   1.410       .  A
C2045      C2046   1.381       .  A
C2045      H2057   1.082       .  S
C2046      H2058   1.082       .  S
C2047      C2048   1.377       .  A
C2047      H2059   1.082       .  S
C2048      H2060   1.082       .  S
C2049      C2050   1.377       .  A
C2049      H2061   1.082       .  S
C2050      H2062   1.082       .  S
C2051      C2052   1.377       .  A
C2051      H2063   1.082       .  S
C2052      H2064   1.082       .  S
C2053      C2157   1.508       .  S
C2054      C2171   1.510       .  S
C2055      C2188   1.492       .  S
C2056      C2202   1.501       .  S
N2067      C2072   1.353       .  A
N2067      C2071   1.354       .  A
N2067      H2099   1.034       .  S
N2068      C2075   1.351       .  A
N2068      C2076   1.351       .  A
N2069      C2074   1.353       .  A
N2069      C2073   1.353       .  A
N2069      H2100   1.040       .  S
N2070      C2077   1.351       .  A
N2070      C2078   1.353       .  A
C2071      C2079   1.388       .  A
C2071      C2087   1.420       .  A
C2072      C2088   1.418       .  A
C2072      C2080   1.387       .  A
C2073      C2081   1.386       .  A
C2073      C2090   1.414       .  A
C2074      C2089   1.417       .  A
C2074      C2082   1.387       .  A
C2075      C2087   1.418       .  A
C2075      C2083   1.388       .  A
C2076      C2090   1.415       .  A
C2076      C2084   1.386       .  A
C2077      C2085   1.388       .  A
C2077      C2088   1.419       .  A
C2078      C2086   1.385       .  A
C2078      C2089   1.415       .  A
C2079      C2080   1.374       .  A
C2079      H2091   1.082       .  S
C2080      H2092   1.082       .  S
C2081      C2082   1.378       .  A
C2081      H2093   1.082       .  S
C2082      H2094   1.082       .  S
C2083      C2084   1.369       .  A
C2083      H2095   1.081       .  S
C2084      H2096   1.082       .  S
C2085      C2086   1.369       .  A
C2085      H2097   1.081       .  S
C2086      H2098   1.082       .  S
C2087      C2104   1.498       .  S
C2088      C2129   1.496       .  S
C2089      C2146   1.506       .  S
C2090      C2118   1.500       .  S
C2101      C2426   1.409       .  A
C2101      C2106   1.410       .  A
C2102      C2425   1.409       .  A
C2102      C2103   1.407       .  A
C2102      C2107   1.443       .  S
C2103      C2428   1.411   1_554  A
C2103      C2110   1.452       .  S
C2104      C2427   1.411       .  A
C2104      C2105   1.414       .  A
C2105      C2106   1.411       .  A
C2105      C2108   1.450       .  S
C2106      C2109   1.448       .  S
C2107      N2114   1.154       .  T
C2108      N2113   1.157       .  T
C2109      N2111   1.156       .  T
C2110      N2112   1.157       .  T
C2115      C2440   1.415       .  A
C2115      C2120   1.418       .  A
C2116      C2439   1.415   1_554  A
C2116      C2117   1.412       .  A
C2116      C2121   1.452       .  S
C2117      C2442   1.413   1_554  A
C2117      C2124   1.449       .  S
C2118      C2441   1.413       .  A
C2118      C2119   1.412       .  A
C2119      C2120   1.409       .  A
C2119      C2122   1.453       .  S
C2120      C2123   1.450       .  S
C2121      N2128   1.157       .  T
C2122      N2127   1.157       .  T
C2123      N2125   1.157       .  T
C2124      N2126   1.157       .  T
C2129      C2454   1.410       .  A
C2129      C2134   1.415       .  A
C2130      C2453   1.410   1_554  A
C2130      C2131   1.404       .  A
C2130      C2135   1.452       .  S
C2131      C2456   1.408   1_554  A
C2131      C2138   1.443       .  S
C2132      C2455   1.408       .  A
C2132      C2133   1.411       .  A
C2133      C2134   1.413       .  A
C2133      C2136   1.450       .  S
C2134      C2137   1.450       .  S
C2135      N2142   1.157       .  T
C2136      N2141   1.157       .  T
C2137      N2139   1.157       .  T
C2138      N2140   1.155       .  T
C2143      C2468   1.416       .  A
C2143      C2148   1.418       .  A
C2144      C2467   1.416   1_554  A
C2144      C2145   1.409       .  A
C2144      C2149   1.450       .  S
C2145      C2470   1.414   1_554  A
C2145      C2152   1.451       .  S
C2146      C2469   1.414       .  A
C2146      C2147   1.416       .  A
C2147      C2148   1.412       .  A
C2147      C2150   1.452       .  S
C2148      C2151   1.450       .  S
C2149      N2156   1.157       .  T
C2150      N2155   1.157       .  T
C2151      N2153   1.157       .  T
C2152      N2154   1.157       .  T
C2157      C2162   1.413       .  A
C2158      C2159   1.413       .  A
C2158      C2163   1.448       .  S
C2159      C2160   1.419       .  A
C2159      C2166   1.451       .  S
C2161      C2162   1.411       .  A
C2161      C2164   1.450       .  S
C2162      C2165   1.452       .  S
C2163      N2170   1.156       .  T
C2164      N2169   1.157       .  T
C2165      N2167   1.157       .  T
C2166      N2168   1.158       .  T
C2171      C2172   1.418       .  A
C2172      C2173   1.416       .  A
C2172      C2177   1.451       .  S
C2173      C2180   1.451       .  S
C2174      C2175   1.420   1_545  A
C2175      C2176   1.406       .  A
C2175      C2178   1.452       .  S
C2176      C2179   1.449       .  S
C2177      N2184   1.157       .  T
C2178      N2183   1.158       .  T
C2179      N2181   1.156       .  T
C2180      N2182   1.158       .  T
C2185      C2186   1.408       .  A
C2186      C2187   1.409       .  A
C2186      C2191   1.450       .  S
C2187      C2188   1.412       .  A
C2187      C2194   1.450       .  S
C2189      C2190   1.410       .  A
C2189      C2192   1.451       .  S
C2190      C2193   1.448       .  S
C2191      N2198   1.157       .  T
C2192      N2197   1.157       .  T
C2193      N2195   1.156       .  T
C2194      N2196   1.157       .  T
C2199      C2204   1.416       .  A
C2200      C2201   1.410       .  A
C2200      C2205   1.450       .  S
C2201      C2208   1.451       .  S
C2202      C2203   1.413       .  A
C2203      C2204   1.416       .  A
C2203      C2206   1.450       .  S
C2204      C2207   1.449       .  S
C2205      N2212   1.156       .  T
C2206      N2211   1.157       .  T
C2207      N2209   1.157       .  T
C2208      N2210   1.157       .  T
C2213      C2214   1.408       .  A
C2214      C2215   1.407       .  A
C2214      C2219   1.452       .  S
C2215      C2216   1.413       .  A
C2215      C2222   1.451       .  S
C2217      C2218   1.408       .  A
C2217      C2220   1.449       .  S
C2218      C2221   1.451       .  S
C2219      N2226   1.158       .  T
C2220      N2225   1.157       .  T
C2221      N2223   1.158       .  T
C2222      N2224   1.157       .  T
C2227      C2228   1.412       .  A
C2228      C2229   1.413       .  A
C2228      C2233   1.452       .  S
C2229      C2230   1.418       .  A
C2229      C2236   1.449       .  S
C2231      C2232   1.411       .  A
C2231      C2234   1.451       .  S
C2232      C2235   1.452       .  S
C2233      N2240   1.157       .  T
C2234      N2239   1.157       .  T
C2235      N2237   1.157       .  T
C2236      N2238   1.156       .  T
C2241      C2242   1.412       .  A
C2242      C2243   1.411       .  A
C2242      C2247   1.450       .  S
C2243      C2244   1.409       .  A
C2243      C2250   1.445       .  S
C2245      C2246   1.408       .  A
C2245      C2248   1.447       .  S
C2246      C2249   1.450       .  S
C2247      N2254   1.157       .  T
C2248      N2253   1.156       .  T
C2249      N2251   1.157       .  T
C2250      N2252   1.155       .  T
C2255      C2256   1.414       .  A
C2256      C2257   1.410       .  A
C2256      C2261   1.452       .  S
C2257      C2258   1.420       .  A
C2257      C2264   1.450       .  S
C2259      C2260   1.416       .  A
C2259      C2262   1.449       .  S
C2260      C2263   1.451       .  S
C2261      N2268   1.157       .  T
C2262      N2267   1.157       .  T
C2263      N2265   1.157       .  T
C2264      N2266   1.158       .  T
N2269      C2274   1.351       .  A
N2269      C2273   1.355       .  A
N2269      H2301   1.037       .  S
N2270      C2277   1.352       .  A
N2270      C2278   1.350       .  A
N2271      C2276   1.358       .  A
N2271      C2275   1.355       .  A
N2271      H2302   1.036       .  S
N2272      C2279   1.350       .  A
N2272      C2280   1.352       .  A
C2273      C2281   1.388       .  A
C2273      C2289   1.419       .  A
C2274      C2290   1.413       .  A
C2274      C2282   1.386       .  A
C2275      C2283   1.386       .  A
C2275      C2292   1.419       .  A
C2276      C2291   1.425       .  A
C2276      C2284   1.388       .  A
C2277      C2289   1.417       .  A
C2277      C2285   1.387       .  A
C2278      C2292   1.414       .  A
C2278      C2286   1.386       .  A
C2279      C2287   1.384       .  A
C2279      C2290   1.412       .  A
C2280      C2288   1.389       .  A
C2280      C2291   1.421       .  A
C2281      C2282   1.374       .  A
C2281      H2293   1.082       .  S
C2282      H2294   1.082       .  S
C2283      C2284   1.376       .  A
C2283      H2295   1.082       .  S
C2284      H2296   1.082       .  S
C2285      C2286   1.370       .  A
C2285      H2297   1.082       .  S
C2286      H2298   1.082       .  S
C2287      C2288   1.371       .  A
C2287      H2299   1.082       .  S
C2288      H2300   1.082       .  S
C2289      C2551   1.504       .  S
C2290      C2540   1.490       .  S
C2291      C2579   1.511       .  S
C2292      C2565   1.495       .  S
O2303      C2314   1.296       .  A
O2304      C2315   1.300       .  A
O2305      C2316   1.296       .  A
O2306      C2317   1.298       .  A
O2309      C2315   1.284       .  A
O2309     Eu2311   2.426   1_565  S
O2310      C2314   1.288       .  A
Eu2311     O2312   2.356   1_545  S
C2314      C2582   1.503       .  S
C2315      C2568   1.483       .  S
C2316      C2523   1.494       .  S
C2317      C2509   1.483       .  S
H2318      O2319   0.967       .  S
H2320      O2321   0.966       .  S
O2322      C2345   1.295       .  A
O2322     Eu2338   2.481   1_556  S
O2323      C2346   1.291       .  A
O2323     Eu2339   2.459       .  S
O2324      C2347   1.295       .  A
O2324     Eu2340   2.483       .  S
O2325      C2348   1.294       .  A
O2325     Eu2341   2.481       .  S
O2326      C2349   1.293       .  A
O2327      C2350   1.295       .  A
O2328      C2351   1.290       .  A
O2329      C2352   1.292   1_565  A
O2329     Eu2342   2.467       .  S
O2330      C2351   1.293   1_545  A
O2330     Eu2340   2.472   1_546  S
O2331      C2352   1.288       .  A
O2331     Eu2341   2.445   1_545  S
O2332      C2347   1.288       .  A
O2333      C2350   1.289   1_556  A
O2334      C2349   1.290       .  A
O2334     Eu2339   2.453       .  S
O2335      C2348   1.288   1_554  A
O2335     Eu2338   2.445       .  S
O2336      C2345   1.291       .  A
O2336     Eu2342   2.457       .  S
O2337      C2346   1.288       .  A
Eu2338     O2356   2.364   1_554  S
Eu2339     O2343   2.360       .  S
Eu2340     O2344   2.347   1_554  S
Eu2341     O2356   2.348       .  S
Eu2342     O2356   2.349       .  S
C2345      C2554   1.498       .  S
C2346      C2537   1.471       .  S
C2347      C2425   1.482       .  S
C2348      C2456   1.482       .  S
C2349      C2467   1.494       .  S
C2350      C2439   1.493   1_554  S
C2351      C2484   1.503       .  S
C2352      C2498   1.501       .  S
H2353      O2354   0.964       .  S
H2355      O2356   0.967       .  S
N2357      C2362   1.354       .  A
N2357      C2361   1.354       .  A
N2357      H2389   1.042       .  S
N2358      C2365   1.350       .  A
N2358      C2366   1.352       .  A
N2359      C2364   1.351       .  A
N2359      C2363   1.353       .  A
N2359      H2390   1.040       .  S
N2360      C2367   1.351       .  A
N2360      C2368   1.349       .  A
C2361      C2369   1.387       .  A
C2361      C2377   1.419       .  A
C2362      C2378   1.421       .  A
C2362      C2370   1.388       .  A
C2363      C2371   1.387       .  A
C2363      C2380   1.415       .  A
C2364      C2379   1.413       .  A
C2364      C2372   1.387       .  A
C2365      C2377   1.417       .  A
C2365      C2373   1.388       .  A
C2366      C2380   1.412       .  A
C2366      C2374   1.384       .  A
C2367      C2375   1.387       .  A
C2367      C2378   1.415       .  A
C2368      C2376   1.385       .  A
C2368      C2379   1.410       .  A
C2369      C2370   1.381       .  A
C2369      H2381   1.082       .  S
C2370      H2382   1.082       .  S
C2371      C2372   1.377       .  A
C2371      H2383   1.082       .  S
C2372      H2384   1.082       .  S
C2373      C2374   1.377       .  A
C2373      H2385   1.082       .  S
C2374      H2386   1.082       .  S
C2375      C2376   1.377       .  A
C2375      H2387   1.082       .  S
C2376      H2388   1.082       .  S
C2377      C2481   1.508       .  S
C2378      C2495   1.510       .  S
C2379      C2512   1.492       .  S
C2380      C2526   1.501       .  S
N2391      C2396   1.353       .  A
N2391      C2395   1.354       .  A
N2391      H2423   1.034   1_556  S
N2392      C2399   1.351   1_556  A
N2392      C2400   1.351   1_556  A
N2393      C2398   1.353       .  A
N2393      C2397   1.353       .  A
N2393      H2424   1.040   1_556  S
N2394      C2401   1.351       .  A
N2394      C2402   1.353       .  A
C2395      C2403   1.388       .  A
C2395      C2411   1.420       .  A
C2396      C2412   1.418       .  A
C2396      C2404   1.387       .  A
C2397      C2405   1.386       .  A
C2397      C2414   1.414       .  A
C2398      C2413   1.417       .  A
C2398      C2406   1.387       .  A
C2399      C2411   1.418   1_554  A
C2399      C2407   1.388       .  A
C2400      C2414   1.415   1_554  A
C2400      C2408   1.386       .  A
C2401      C2409   1.388   1_556  A
C2401      C2412   1.419       .  A
C2402      C2410   1.385   1_556  A
C2402      C2413   1.415       .  A
C2403      C2404   1.374       .  A
C2403      H2415   1.082       .  S
C2404      H2416   1.082       .  S
C2405      C2406   1.378       .  A
C2405      H2417   1.082       .  S
C2406      H2418   1.082       .  S
C2407      C2408   1.369       .  A
C2407      H2419   1.081       .  S
C2408      H2420   1.082       .  S
C2409      C2410   1.369       .  A
C2409      H2421   1.081       .  S
C2410      H2422   1.082       .  S
C2411      C2428   1.498       .  S
C2412      C2453   1.496       .  S
C2413      C2470   1.506       .  S
C2414      C2442   1.500       .  S
C2425      C2430   1.410   1_554  A
C2426      C2427   1.407       .  A
C2426      C2431   1.443       .  S
C2427      C2434   1.452       .  S
C2428      C2429   1.414       .  A
C2429      C2430   1.411       .  A
C2429      C2432   1.450       .  S
C2430      C2433   1.448       .  S
C2431      N2438   1.154       .  T
C2432      N2437   1.157       .  T
C2433      N2435   1.156       .  T
C2434      N2436   1.157       .  T
C2439      C2444   1.418       .  A
C2440      C2441   1.412       .  A
C2440      C2445   1.451       .  S
C2441      C2448   1.449       .  S
C2442      C2443   1.412       .  A
C2443      C2444   1.409       .  A
C2443      C2446   1.453       .  S
C2444      C2447   1.450       .  S
C2445      N2452   1.157       .  T
C2446      N2451   1.157       .  T
C2447      N2449   1.157       .  T
C2448      N2450   1.157       .  T
C2453      C2458   1.415       .  A
C2454      C2455   1.404       .  A
C2454      C2459   1.452       .  S
C2455      C2462   1.443       .  S
C2456      C2457   1.411       .  A
C2457      C2458   1.413       .  A
C2457      C2460   1.450       .  S
C2458      C2461   1.450       .  S
C2459      N2466   1.157       .  T
C2460      N2465   1.157       .  T
C2461      N2463   1.157       .  T
C2462      N2464   1.155       .  T
C2467      C2472   1.418       .  A
C2468      C2469   1.409       .  A
C2468      C2473   1.450       .  S
C2469      C2476   1.451       .  S
C2470      C2471   1.416       .  A
C2471      C2472   1.412       .  A
C2471      C2474   1.452       .  S
C2472      C2475   1.450       .  S
C2473      N2480   1.157       .  T
C2474      N2479   1.157       .  T
C2475      N2477   1.157       .  T
C2476      N2478   1.157       .  T
C2481      C2486   1.413       .  A
C2482      C2483   1.413       .  A
C2482      C2487   1.448       .  S
C2483      C2484   1.419       .  A
C2483      C2490   1.451       .  S
C2485      C2486   1.411       .  A
C2485      C2488   1.450       .  S
C2486      C2489   1.452       .  S
C2487      N2494   1.156       .  T
C2488      N2493   1.157       .  T
C2489      N2491   1.157       .  T
C2490      N2492   1.158       .  T
C2495      C2496   1.418       .  A
C2496      C2497   1.416       .  A
C2496      C2501   1.451       .  S
C2497      C2504   1.451       .  S
C2498      C2499   1.420   1_545  A
C2499      C2500   1.406       .  A
C2499      C2502   1.452       .  S
C2500      C2503   1.449       .  S
C2501      N2508   1.157       .  T
C2502      N2507   1.158       .  T
C2503      N2505   1.156       .  T
C2504      N2506   1.158       .  T
C2509      C2510   1.408       .  A
C2510      C2511   1.409       .  A
C2510      C2515   1.450       .  S
C2511      C2512   1.412       .  A
C2511      C2518   1.450       .  S
C2513      C2514   1.410       .  A
C2513      C2516   1.451       .  S
C2514      C2517   1.448       .  S
C2515      N2522   1.157       .  T
C2516      N2521   1.157       .  T
C2517      N2519   1.156       .  T
C2518      N2520   1.157       .  T
C2523      C2528   1.416       .  A
C2524      C2525   1.410       .  A
C2524      C2529   1.450       .  S
C2525      C2532   1.451       .  S
C2526      C2527   1.413       .  A
C2527      C2528   1.416       .  A
C2527      C2530   1.450       .  S
C2528      C2531   1.449       .  S
C2529      N2536   1.156       .  T
C2530      N2535   1.157       .  T
C2531      N2533   1.157       .  T
C2532      N2534   1.157       .  T
C2537      C2538   1.408       .  A
C2538      C2539   1.407       .  A
C2538      C2543   1.452       .  S
C2539      C2540   1.413       .  A
C2539      C2546   1.451       .  S
C2541      C2542   1.408       .  A
C2541      C2544   1.449       .  S
C2542      C2545   1.451       .  S
C2543      N2550   1.158       .  T
C2544      N2549   1.157       .  T
C2545      N2547   1.158       .  T
C2546      N2548   1.157       .  T
C2551      C2552   1.412       .  A
C2552      C2553   1.413       .  A
C2552      C2557   1.452       .  S
C2553      C2554   1.418       .  A
C2553      C2560   1.449       .  S
C2555      C2556   1.411       .  A
C2555      C2558   1.451       .  S
C2556      C2559   1.452       .  S
C2557      N2564   1.157       .  T
C2558      N2563   1.157       .  T
C2559      N2561   1.157       .  T
C2560      N2562   1.156       .  T
C2565      C2566   1.412       .  A
C2566      C2567   1.411       .  A
C2566      C2571   1.450       .  S
C2567      C2568   1.409       .  A
C2567      C2574   1.445       .  S
C2569      C2570   1.408       .  A
C2569      C2572   1.447       .  S
C2570      C2573   1.450       .  S
C2571      N2578   1.157       .  T
C2572      N2577   1.156       .  T
C2573      N2575   1.157       .  T
C2574      N2576   1.155       .  T
C2579      C2580   1.414       .  A
C2580      C2581   1.410       .  A
C2580      C2585   1.452       .  S
C2581      C2582   1.420       .  A
C2581      C2588   1.450       .  S
C2583      C2584   1.416       .  A
C2583      C2586   1.449       .  S
C2584      C2587   1.451       .  S
C2585      N2592   1.157       .  T
C2586      N2591   1.157       .  T
C2587      N2589   1.157       .  T
C2588      N2590   1.158       .  T
