geometry optimzed in LAMMPS
_audit_creation_date              2020-11-30 
_audit_creation_method            'lammps2cif' 
_symmetry_space_group_name_H-M    'P1' 
_symmetry_Int_Tables_number       1 
_symmetry_cell_setting            triclinic 
loop_ 
_symmetry_equiv_pos_as_xyz 
  x,y,z 
_cell_length_a                    28.935124274072475 
_cell_length_b                    29.900348256231833 
_cell_length_c                    28.66450701049213 
_cell_angle_alpha                 90.35179333310799 
_cell_angle_beta                  89.155133564323 
_cell_angle_gamma                 90.46488944850034 
loop_ 
_atom_site_label 
_atom_site_type_symbol 
_atom_site_fract_x 
_atom_site_fract_y 
_atom_site_fract_z 
_atom_site_charge 
C1          C  0.34198244  0.32789045  0.18831105    -0.03070
C2          C  0.32900415  0.18892034  0.31712846    -0.03070
C3          C  0.20784262  0.19980806  0.17962803    -0.03070
C4          C  0.21790603  0.33262318  0.32138422    -0.03070
C5          C  0.32341862  0.20576907  0.68639265    -0.03070
C6          C  0.18887755  0.21645392  0.82099454    -0.03070
C7          C  0.19233853  0.33187995  0.67959036    -0.03070
C8          C  0.32383399  0.35062459  0.80919334    -0.03070
O9          O  0.46936568  0.46566026  0.93033774    -0.80720
O10         O  0.54834059  0.56652234  0.93460724    -0.80740
O11         O  0.44666821  0.56301063  0.95260316    -0.80750
O12         O  0.61411355  0.45985803  0.97711139    -0.80690
O13         O  0.48427347  0.62519177  0.96979095    -0.80820
O14         O  0.55800695  0.45185774  0.92783586    -0.80730
O15         O  0.61048634  0.55236209  0.97557190    -0.80720
O16         O  0.41394080  0.47925728  0.97877671    -0.80760
C17         C  0.42737499  0.46310554  0.94011618     1.08970
C18         C  0.59170748  0.56918765  0.93954016     1.08860
C19         C  0.45288664  0.60560531  0.94687369     1.08990
C20         C  0.59902558  0.44488021  0.93832001     1.08870
O21         O  0.55595655  0.40831180  0.01864296    -0.80720
O22         O  0.46936837  0.58302150  0.05163427    -0.80800
O23         O  0.45519938  0.48584592  0.06815432    -0.80730
O24         O  0.56908106  0.55006394  0.07069209    -0.80710
O25         O  0.55861889  0.60538721  0.02448350    -0.80760
O26         O  0.46307033  0.42459673  0.02485301    -0.81610
O27         O  0.56587678  0.46260500  0.06799778    -0.80690
O28         O  0.40144150  0.55356370  0.03471998    -0.80760
Co29       Co  0.51145407  0.44129909  0.97596245     1.51530
Co30       Co  0.50873213  0.57043849  0.99094680     1.51690
Co31       Co  0.45516264  0.52390029  0.01223945     1.51570
Co32       Co  0.58647011  0.50642256  0.02244970     1.51470
O33         O  0.52109534  0.50462772  0.99994538    -1.42650
C34         C  0.57088281  0.42223029  0.05768755     1.08900
C35         C  0.42487339  0.58241577  0.05683316     1.08990
C36         C  0.45030470  0.44401194  0.06267736     1.08920
C37         C  0.57597451  0.59032104  0.06133967     1.08900
C38         C  0.31273718  0.70207085  0.17303754    -0.03070
C39         C  0.18139975  0.84435331  0.20761113    -0.03070
C40         C  0.19082532  0.70162762  0.32102731    -0.03070
C41         C  0.32354607  0.83233039  0.32642584    -0.03070
O42         O  0.47681987  0.12403971  0.53687269    -0.80720
O43         O  0.55767497  0.95147190  0.57989564    -0.80740
O44         O  0.41258320  0.97511122  0.53335499    -0.80750
O45         O  0.60567382  0.05660016  0.53106295    -0.80690
O46         O  0.46676824  0.96042452  0.58098113    -0.80820
O47         O  0.54333565  0.07185730  0.57362006    -0.80730
O48         O  0.61368899  0.96368571  0.52903619    -0.80720
O49         O  0.44226499  0.06134613  0.55824042    -0.80760
C50         C  0.44690963  0.10446973  0.56214943     1.08970
C51         C  0.59920748  0.94731835  0.56759730     1.08860
C52         C  0.42496623  0.95749642  0.57103119     1.08990
C53         C  0.58658578  0.07538171  0.56674738     1.08870
O54         O  0.55154461  0.10609300  0.48248889    -0.80720
O55         O  0.46224555  0.92010725  0.48553967    -0.80800
O56         O  0.39788379  0.04675523  0.47760996    -0.80730
O57         O  0.56772384  0.96340704  0.43908865    -0.80710
O58         O  0.55615723  0.90937557  0.48873948    -0.80760
O59         O  0.46477723  0.07727878  0.45803548    -0.80730
O60         O  0.56575355  0.05061519  0.43654269    -0.80690
O61         O  0.45471875  0.98074522  0.44328848    -0.80760
Co62       Co  0.50381268  0.06968871  0.51799335     1.51530
Co63       Co  0.51069548  0.93953394  0.53320591     1.51690
Co64       Co  0.45269694  0.02028898  0.49922763     1.51570
Co65       Co  0.58440438  0.00862295  0.48494676     1.51470
O66         O  0.51907431  0.00385376  0.51034243    -1.42650
C67         C  0.56967113  0.09141119  0.44524408     1.08900
C68         C  0.44873543  0.93895513  0.44819593     1.08990
C69         C  0.42046279  0.07475385  0.45330355     1.08920
C70         C  0.57106490  0.92295140  0.44936826     1.08900
C71         C  0.71504824  0.32627738  0.81825874    -0.03070
C72         C  0.83907784  0.31357103  0.67549393    -0.03070
C73         C  0.71341339  0.18633702  0.68044794    -0.03070
C74         C  0.83247731  0.19030018  0.82364473    -0.03070
C75         C  0.33020118  0.70193461  0.82110363    -0.03070
C76         C  0.31140943  0.83717027  0.68833962    -0.03070
C77         C  0.19234946  0.69540981  0.68854796    -0.03070
C78         C  0.18589298  0.81674283  0.82550417    -0.03070
C79         C  0.69897195  0.81323372  0.33753869    -0.03070
C80         C  0.82678135  0.69118727  0.33086584    -0.03070
C81         C  0.70572515  0.68764570  0.18259571    -0.03070
C82         C  0.83578799  0.81730672  0.18856549    -0.03070
C83         C  0.71009173  0.68826227  0.82088453    -0.03070
C84         C  0.84568389  0.70415487  0.68641193    -0.03070
C85         C  0.69874082  0.81629859  0.68289629    -0.03070
C86         C  0.82741275  0.83570671  0.81512564    -0.03070
O87         O  0.06554674  0.11245839  0.98569578    -0.80720
O88         O  0.96229898  0.94879809  0.95567888    -0.80740
O89         O  0.06472191  0.97128172  0.93144560    -0.80750
O90         O  0.96177615  0.04872083  0.93762560    -0.80690
O91         O  0.04797241  0.91893934  0.98011278    -0.80820
O92         O  0.97170522  0.10755601  0.98345142    -0.80730
O93         O  0.89808236  0.98676830  0.96894572    -0.80720
O94         O  0.07308837  0.05936329  0.93356332    -0.80760
C95         C  0.07969027  0.09910430  0.94569842     1.08970
C96         C  0.91876647  0.95519729  0.94815746     1.08860
C97         C  0.06486689  0.93060320  0.94123740     1.08990
C98         C  0.95764629  0.09029674  0.94521001     1.08870
O99         O  0.97232697  0.06363346  0.07620241    -0.80720
O100        O  0.04389455  0.95869565  0.06933309    -0.80800
O101        O  0.11935423  0.05751246  0.02272058    -0.80730
O102        O  0.93997204  0.97028792  0.05023445    -0.80710
O103        O  0.97391979  0.90529890  0.03591564    -0.80760
O104        O  0.06407040  0.06511690  0.07424998    -0.80730
O105        O  0.91746871  0.05528626  0.02692936    -0.80690
O106        O  0.10651636  0.96611163  0.02485433    -0.80760
Co107      Co  0.01828055  0.08387415  0.02968646     1.51530
Co108      Co  0.00303952  0.95801491  0.01487893     1.51690
Co109      Co  0.08717107  0.01356078  0.97867690     1.51570
Co110      Co  0.95482959  0.00924728  0.99168495     1.51470
O111        O  0.02191525  0.02139153  0.00364981    -1.42650
C112        C  0.93082295  0.06923908  0.06610592     1.08900
C113        C  0.08697971  0.95281918  0.06261802     1.08990
C114        C  0.10530533  0.07203176  0.06225286     1.08920
C115        C  0.94257803  0.92766378  0.05628147     1.08900
C116        C  0.68746774  0.20112944  0.32123797    -0.03070
C117        C  0.82364175  0.19576655  0.18156499    -0.03070
C118        C  0.70365527  0.32714346  0.17659480    -0.03070
C119        C  0.82771548  0.32151860  0.31786775    -0.03070
O120        O  0.05112296  0.39901673  0.46236387    -0.80720
O121        O  0.08617703  0.56170875  0.54294700    -0.80740
O122        O  0.03626691  0.54568581  0.39672235    -0.80750
O123        O  0.03652042  0.46612453  0.59141201    -0.80690
O124        O  0.08551417  0.55372156  0.45111241    -0.80820
O125        O  0.08168885  0.45722398  0.52947581    -0.80730
O126        O  0.03548840  0.55709117  0.60004659    -0.80720
O127        O  0.06353141  0.46299619  0.42547229    -0.80760
C128        C  0.07257611  0.42125994  0.43133669     1.08970
C129        C  0.07524090  0.56913198  0.58474010     1.08860
C130        C  0.07473405  0.56102096  0.40987301     1.08990
C131        C  0.07366314  0.45142505  0.57264152     1.08870
O132        O  0.99385144  0.41524333  0.53677387    -0.80720
O133        O  0.99276226  0.59641871  0.45041990    -0.80800
O134        O  0.98117234  0.47276902  0.38341442    -0.80730
O135        O  0.94513955  0.55786632  0.55629819    -0.80710
O136        O  0.99887271  0.60877008  0.54272773    -0.80760
O137        O  0.96800901  0.43966712  0.45087120    -0.80730
O138        O  0.94398582  0.46717980  0.55256616    -0.80690
O139        O  0.94801265  0.53688390  0.44229653    -0.80760
Co140      Co  0.02749778  0.45245203  0.48916103     1.51530
Co141      Co  0.04080309  0.57706667  0.49677859     1.51690
Co142      Co  0.00361799  0.49980123  0.43784177     1.51570
Co143      Co  0.99056314  0.51204929  0.57124091     1.51470
O144        O  0.01438796  0.51598598  0.50481116    -1.42650
C145        C  0.95515364  0.42661680  0.55376639     1.08900
C146        C  0.95429908  0.57852981  0.43821405     1.08990
C147        C  0.95855414  0.44447065  0.40732618     1.08920
C148        C  0.95848801  0.59801337  0.55701393     1.08900
C149        C  0.89327557  0.39005298  0.41474748    -0.09740
C150        C  0.92111720  0.41770076  0.38638284     0.06460
C151        C  0.91256242  0.41862117  0.33851775    -0.03500
C152        C  0.88192900  0.38806632  0.31971209    -0.07950
C153        C  0.85623510  0.35664648  0.34624010     0.05570
C154        C  0.85943631  0.36153116  0.39587571    -0.02980
Br155      Br  0.81776301  0.33820603  0.44272122    -0.02670
H156        H  0.89690480  0.39155348  0.45230432     0.09490
H157        H  0.87849740  0.39044999  0.28332930     0.07500
Br158      Br  0.94032977  0.46021158  0.29498750    -0.03100
C159        C  0.72398688  0.37704439  0.25196665    -0.09740
C160        C  0.73595150  0.36113975  0.20591205     0.06460
C161        C  0.78315683  0.36691583  0.19705147    -0.03500
C162        C  0.81366497  0.35860820  0.23302047    -0.07950
C163        C  0.79851756  0.35012898  0.27994665     0.05570
C164        C  0.75651040  0.37349487  0.28876567    -0.02980
Br165      Br  0.75209473  0.41702782  0.33822135    -0.02670
H166        H  0.68857778  0.38531870  0.26088325     0.09490
H167        H  0.84868555  0.36605380  0.22366814     0.07500
Br168      Br  0.80400104  0.41334761  0.15565293    -0.03100
C169        C  0.81094834  0.26815664  0.12826072    -0.09740
C170        C  0.79762430  0.22502045  0.14330045     0.06460
C171        C  0.75235098  0.21580642  0.12871838    -0.03500
C172        C  0.71866953  0.24880780  0.13564108    -0.07950
C173        C  0.73252345  0.29389944  0.14376736     0.05570
C174        C  0.77747038  0.30244911  0.12553260    -0.02980
Br175      Br  0.78317544  0.34155555  0.07311468    -0.02670
H176        H  0.84443143  0.27262154  0.11160718     0.09490
H177        H  0.68311383  0.23837218  0.13401636     0.07500
Br178      Br  0.74100312  0.16973667  0.08320368    -0.03100
C179        C  0.86857863  0.27180421  0.20833606    -0.09740
C180        C  0.85435885  0.22656886  0.21592364     0.06460
C181        C  0.87050868  0.21182281  0.25971993    -0.03500
C182        C  0.86989828  0.24255339  0.29769398    -0.07950
C183        C  0.86401571  0.28902852  0.29030447     0.05570
C184        C  0.88233158  0.29884363  0.24597152    -0.02980
Br185      Br  0.93835615  0.33305844  0.23840692    -0.02670
H186        H  0.87771253  0.28462516  0.17478592     0.09490
H187        H  0.88902936  0.23312730  0.32774060     0.07500
Br188      Br  0.92131944  0.17091003  0.26032345    -0.03100
C189        C  0.67544987  0.27980773  0.29268500    -0.09740
C190        C  0.66112141  0.23627042  0.28936939     0.06460
C191        C  0.63482937  0.23095632  0.24656516    -0.03500
C192        C  0.64184318  0.26390858  0.20964583    -0.07950
C193        C  0.67893004  0.29632834  0.21406442     0.05570
C194        C  0.70221686  0.29065874  0.25529601    -0.02980
Br195      Br  0.75919415  0.26211738  0.24897541    -0.02670
H196        H  0.64781012  0.30336062  0.29991582     0.09490
H197        H  0.62045347  0.26253553  0.17917823     0.07500
Br198      Br  0.58356007  0.19052996  0.24060688    -0.03100
C199        C  0.76653630  0.21495080  0.36770470    -0.09740
C200        C  0.72078718  0.22732939  0.35804652     0.06460
C201        C  0.71389328  0.27179260  0.37455416    -0.03500
C202        C  0.74858048  0.30424376  0.36470092    -0.07950
C203        C  0.79358275  0.29118408  0.35021767     0.05570
C204        C  0.80277677  0.24706759  0.36677556    -0.02980
Br205      Br  0.85230563  0.23542730  0.40931188    -0.02670
H206        H  0.77254488  0.18276684  0.38322091     0.09490
H207        H  0.74038970  0.33831248  0.37129446     0.07500
Br208      Br  0.65896611  0.29031383  0.40670762    -0.03100
C209        C  0.76318078  0.15366747  0.29498722    -0.09740
C210        C  0.71795135  0.17000486  0.28667940     0.06460
C211        C  0.70477998  0.15942597  0.24090294    -0.03500
C212        C  0.73839338  0.16215799  0.20480341    -0.07950
C213        C  0.78614983  0.16903681  0.21437485     0.05570
C214        C  0.79619925  0.15010054  0.25820797    -0.02980
Br215      Br  0.83642080  0.09969147  0.26105185    -0.02670
H216        H  0.77106727  0.13764199  0.32735235     0.09490
H217        H  0.72832532  0.14909823  0.17162750     0.07500
Br218      Br  0.66047252  0.11215680  0.23347157    -0.03100
C219        C  0.92403241  0.13812169  0.11132484    -0.09740
C220        C  0.90271016  0.09896868  0.09600669     0.06460
C221        C  0.85656703  0.09076205  0.10872016    -0.03500
C222        C  0.83311982  0.12138735  0.13770137    -0.07950
C223        C  0.85406829  0.16172687  0.15381044     0.05570
C224        C  0.90064195  0.16995537  0.13801795    -0.02980
Br225      Br  0.93812615  0.22260019  0.14565970    -0.02670
H226        H  0.95943271  0.14501121  0.10036375     0.09490
H227        H  0.79771733  0.11340900  0.14673841     0.07500
Br228      Br  0.82461522  0.03790562  0.08829787    -0.03100
C229        C  0.82804107  0.88419415  0.88718662    -0.09740
C230        C  0.85419321  0.86443382  0.85068692     0.06460
C231        C  0.90198944  0.87757936  0.84645817    -0.03500
C232        C  0.92108026  0.90693778  0.87884269    -0.07950
C233        C  0.89459966  0.92637385  0.91432060     0.05570
C234        C  0.84721358  0.91550022  0.91793936    -0.02980
Br235      Br  0.80694779  0.94031056  0.96514170    -0.02670
H236        H  0.79182157  0.87579949  0.89150823     0.09490
H237        H  0.95741187  0.91576163  0.87548793     0.07500
Br238      Br  0.94669614  0.86222146  0.79849769    -0.03100
C239        C  0.77000380  0.86873440  0.70786584    -0.09740
C240        C  0.72822143  0.84568643  0.72034343     0.06460
C241        C  0.71252616  0.86206218  0.76517211    -0.03500
C242        C  0.74602220  0.87308748  0.79956536    -0.07950
C243        C  0.79387212  0.86933431  0.78815756     0.05570
C244        C  0.80153826  0.88268153  0.74205060    -0.02980
Br245      Br  0.84203083  0.93254565  0.72975693    -0.02670
H246        H  0.77505775  0.88181086  0.67331392     0.09490
H247        H  0.73464290  0.87754263  0.83538546     0.07500
Br248      Br  0.65432399  0.89144182  0.77469048    -0.03100
C249        C  0.76269939  0.71716221  0.64591882    -0.09740
C250        C  0.80809157  0.73205004  0.65699203     0.06460
C251        C  0.81674480  0.77441660  0.63583082    -0.03500
C252        C  0.78041880  0.80636111  0.63567151    -0.07950
C253        C  0.73435356  0.79268415  0.64624730     0.05570
C254        C  0.72946110  0.74830276  0.63108114    -0.02980
Br255      Br  0.70827114  0.74029729  0.56833874    -0.02670
H256        H  0.75486097  0.68268015  0.64021310     0.09490
H257        H  0.78594627  0.83747368  0.61737787     0.07500
Br258      Br  0.85853300  0.77698104  0.58342064    -0.03100
C259        C  0.88884780  0.73462458  0.76432767    -0.09740
C260        C  0.87518498  0.73968741  0.71707067     0.06460
C261        C  0.88277417  0.78423253  0.70342455    -0.03500
C262        C  0.87016983  0.81819368  0.73471496    -0.07950
C263        C  0.86062720  0.80847147  0.78222601     0.05570
C264        C  0.88150280  0.76863745  0.79718842    -0.02980
Br265      Br  0.90692333  0.76150909  0.85821115    -0.02670
H266        H  0.90740860  0.70605926  0.77612493     0.09490
H267        H  0.87782472  0.85172273  0.72423214     0.07500
Br268      Br  0.93435906  0.79853915  0.66332043    -0.03100
C269        C  0.85753260  0.65795822  0.61241092    -0.09740
C270        C  0.87815133  0.67917948  0.65134445     0.06460
C271        C  0.92754488  0.67509989  0.65467593    -0.03500
C272        C  0.95260598  0.65252318  0.62007855    -0.07950
C273        C  0.93085125  0.63029645  0.58370371     0.05570
C274        C  0.88289506  0.63313693  0.57976328    -0.02980
Br275      Br  0.85029039  0.60388145  0.53032095    -0.02670
H276        H  0.82100828  0.65989403  0.60680478     0.09490
H277        H  0.98965842  0.64887120  0.62381613     0.07500
Br278      Br  0.96739071  0.69168474  0.70508997    -0.03100
C279        C  0.64527447  0.78334410  0.75277145    -0.09740
C280        C  0.66829580  0.77665796  0.70951770     0.06460
C281        C  0.66894891  0.72898388  0.69980538    -0.03500
C282        C  0.67488001  0.69825117  0.73581852    -0.07950
C283        C  0.67618821  0.71174329  0.78225209     0.05570
C284        C  0.64653775  0.75037763  0.78866075    -0.02980
Br285      Br  0.61396499  0.76451003  0.84614462    -0.02670
H286        H  0.62498396  0.81259111  0.75829047     0.09490
H287        H  0.66909007  0.66345376  0.72825470     0.07500
Br288      Br  0.63840208  0.69839311  0.64909321    -0.03100
C289        C  0.74636576  0.63965228  0.75216290    -0.09740
C290        C  0.75322344  0.66487499  0.79373506     0.06460
C291        C  0.80214948  0.66816367  0.80307833    -0.03500
C292        C  0.83380207  0.66168844  0.76592348    -0.07950
C293        C  0.82035352  0.66753490  0.71994611     0.05570
C294        C  0.77795146  0.64383984  0.71358374    -0.02980
Br295      Br  0.77220618  0.59952636  0.66522632    -0.02670
H296        H  0.71703245  0.61720897  0.74972441     0.09490
H297        H  0.86825005  0.64999280  0.77238812     0.07500
Br298      Br  0.83346577  0.66379906  0.86152635    -0.03100
C299        C  0.72085184  0.77118177  0.83561132    -0.09740
C300        C  0.72774735  0.72919241  0.85318871     0.06460
C301        C  0.76486361  0.73395940  0.88622796    -0.03500
C302        C  0.79807702  0.77155855  0.88020361    -0.07950
C303        C  0.79525575  0.79844183  0.83811187     0.05570
C304        C  0.75861001  0.78514492  0.81108533    -0.02980
Br305      Br  0.77080858  0.76034156  0.75233100    -0.02670
H306        H  0.70867255  0.79542745  0.86140522     0.09490
H307        H  0.82358436  0.77871430  0.90642551     0.07500
Br308      Br  0.76121835  0.70197675  0.94396008    -0.03100
C309        C  0.85801321  0.84483363  0.10459461    -0.09740
C310        C  0.86366237  0.84914363  0.15400958     0.06460
C311        C  0.89653180  0.88265993  0.16748129    -0.03500
C312        C  0.91325663  0.91415554  0.13542756    -0.07950
C313        C  0.91067278  0.90515090  0.08804932     0.05570
C314        C  0.88370963  0.86949609  0.07260569    -0.02980
Br315      Br  0.88271230  0.85074226  0.00842315    -0.02670
H316        H  0.83621067  0.82033528  0.08821608     0.09490
H317        H  0.93736380  0.93988091  0.14679104     0.07500
Br318      Br  0.94467080  0.87319012  0.21023762    -0.03100
C319        C  0.78580256  0.70447211  0.13554758    -0.09740
C320        C  0.73847168  0.71441839  0.14522722     0.06460
C321        C  0.72888586  0.75919695  0.13192420    -0.03500
C322        C  0.76356494  0.79266575  0.13633413    -0.07950
C323        C  0.80752821  0.78272945  0.15416770     0.05570
C324        C  0.82073632  0.73882314  0.13843469    -0.02980
Br325      Br  0.87710896  0.72910084  0.10393926    -0.02670
H326        H  0.79514252  0.67187724  0.12326290     0.09490
H327        H  0.75809541  0.82527322  0.12140668     0.07500
Br328      Br  0.68644715  0.77023142  0.08302565    -0.03100
C329        C  0.80925780  0.64118506  0.25343452    -0.09740
C330        C  0.79357830  0.65877820  0.29711395     0.06460
C331        C  0.74488650  0.64828681  0.30245949    -0.03500
C332        C  0.71535939  0.64644404  0.26297711    -0.07950
C333        C  0.73234334  0.65175621  0.21652702     0.05570
C334        C  0.77972376  0.63749637  0.21358455    -0.02980
Br335      Br  0.80038997  0.59589558  0.16656242    -0.02670
H336        H  0.84346218  0.62843588  0.25036171     0.09490
H337        H  0.67836604  0.64431064  0.26897768     0.07500
Br338      Br  0.72347739  0.60324808  0.34573039    -0.03100
C339        C  0.84952556  0.77202987  0.30168489    -0.09740
C340        C  0.85572088  0.72536279  0.29746802     0.06460
C341        C  0.88443729  0.71477188  0.25677587    -0.03500
C342        C  0.88821879  0.74677575  0.21897553    -0.07950
C343        C  0.87125364  0.79147846  0.22403155     0.05570
C344        C  0.87134090  0.80204713  0.27222157    -0.02980
Br345      Br  0.92492693  0.82417376  0.30394500    -0.02670
H346        H  0.81911670  0.78540509  0.31594883     0.09490
H347        H  0.90758350  0.73777378  0.18827391     0.07500
Br348      Br  0.92425241  0.66362112  0.25211040    -0.03100
C349        C  0.84660190  0.62044279  0.37589748    -0.09740
C350        C  0.86187360  0.66219290  0.35835149     0.06460
C351        C  0.90808625  0.67538603  0.37077519    -0.03500
C352        C  0.93488571  0.64824356  0.39862988    -0.07950
C353        C  0.91991270  0.60640000  0.41379480     0.05570
C354        C  0.87498830  0.59219077  0.40176691    -0.02980
Br355      Br  0.84953603  0.53493804  0.41897628    -0.02670
H356        H  0.81233513  0.60874074  0.36896170     0.09490
H357        H  0.96950511  0.65955982  0.40694235     0.07500
Br358      Br  0.94407970  0.72654666  0.35205016    -0.03100
C359        C  0.64341657  0.72866037  0.24320845    -0.09740
C360        C  0.68758441  0.72309387  0.21980722     0.06460
C361        C  0.72290375  0.74227460  0.24457834    -0.03500
C362        C  0.71861661  0.75205151  0.28957053    -0.07950
C363        C  0.68064561  0.77436037  0.30493864     0.05570
C364        C  0.63897595  0.76007823  0.28197787    -0.02980
Br365      Br  0.57816159  0.77911107  0.29951026    -0.02670
H366        H  0.61357562  0.70927752  0.23306228     0.09490
H367        H  0.74999587  0.75566752  0.30826876     0.07500
Br368      Br  0.78242265  0.73688127  0.23360329    -0.03100
C369        C  0.77713711  0.85683804  0.30596897    -0.09740
C370        C  0.73134075  0.84078457  0.29981494     0.06460
C371        C  0.71690050  0.84720957  0.25268033    -0.03500
C372        C  0.74963457  0.84815741  0.21515767    -0.07950
C373        C  0.79825968  0.84607752  0.22183898     0.05570
C374        C  0.80736983  0.86521775  0.26684297    -0.02980
Br375      Br  0.85286356  0.91126904  0.27451369    -0.02670
H376        H  0.78824070  0.86762772  0.33986077     0.09490
H377        H  0.73595593  0.85631523  0.18183191     0.07500
Br378      Br  0.65365960  0.85803233  0.23725727    -0.03100
C379        C  0.77150423  0.79606249  0.39162774    -0.09740
C380        C  0.72541078  0.78594159  0.37903856     0.06460
C381        C  0.71572256  0.73895340  0.38840630    -0.03500
C382        C  0.75145167  0.70691799  0.38349882    -0.07950
C383        C  0.79653674  0.71908261  0.37038690     0.05570
C384        C  0.80642720  0.76211304  0.39097263    -0.02980
Br385      Br  0.86471892  0.77776078  0.41681918    -0.02670
H386        H  0.78046624  0.82971242  0.40206418     0.09490
H387        H  0.74426860  0.67288371  0.39141098     0.07500
Br388      Br  0.65611533  0.71191281  0.39845543    -0.03100
C389        C  0.13464406  0.88434328  0.84029005    -0.09740
C390        C  0.15353997  0.84460776  0.85834747     0.06460
C391        C  0.13581643  0.83101444  0.90315955    -0.03500
C392        C  0.10595225  0.85891991  0.92871451    -0.07950
C393        C  0.08987242  0.89895072  0.91043966     0.05570
C394        C  0.10244800  0.91009318  0.86452696    -0.02980
Br395      Br  0.07438262  0.95787440  0.83066088    -0.02670
H396        H  0.14345489  0.89614671  0.80616271     0.09490
H397        H  0.09534239  0.84924962  0.96367080     0.07500
Br398      Br  0.14648091  0.77589187  0.93477672    -0.03100
C399        C  0.13872129  0.76482529  0.71287444    -0.09740
C400        C  0.15503275  0.72144604  0.72222279     0.06460
C401        C  0.13971479  0.70940037  0.76840011    -0.03500
C402        C  0.13776472  0.74302456  0.80348187    -0.07950
C403        C  0.15228921  0.78672890  0.79325186     0.05570
C404        C  0.13569720  0.79752597  0.74860688    -0.02980
Br405      Br  0.08456998  0.83805559  0.74424566    -0.02670
H406        H  0.11877550  0.76956124  0.68218981     0.09490
H407        H  0.12059151  0.73657261  0.83657234     0.07500
Br408      Br  0.09491443  0.66275784  0.77940186    -0.03100
C409        C  0.14152312  0.62630411  0.68199817    -0.09740
C410        C  0.16646217  0.66016151  0.65813195     0.06460
C411        C  0.16522892  0.65789342  0.60815936    -0.03500
C412        C  0.13477916  0.62828447  0.58643067    -0.07950
C413        C  0.10661211  0.59839947  0.61161667     0.05570
C414        C  0.11060920  0.59723675  0.66007130    -0.02980
Br415      Br  0.07627546  0.55617547  0.69833651    -0.02670
H416        H  0.14673016  0.62118101  0.71831547     0.09490
H417        H  0.13348393  0.62843369  0.54864260     0.07500
Br418      Br  0.20599650  0.68579140  0.56300834    -0.03100
C419        C  0.23406857  0.81094476  0.64633875    -0.09740
C420        C  0.28126298  0.80509837  0.65633963     0.06460
C421        C  0.29760271  0.76335398  0.64048009    -0.03500
C422        C  0.26727334  0.72651902  0.64192599    -0.07950
C423        C  0.22034268  0.73128768  0.65651855     0.05570
C424        C  0.20404021  0.77395427  0.64303010    -0.02980
Br425      Br  0.15344914  0.78080534  0.60058802    -0.02670
H426        H  0.22188244  0.84265271  0.63476460     0.09490
H427        H  0.27979359  0.69564423  0.62801477     0.07500
Br428      Br  0.35406020  0.75806721  0.60516810    -0.03100
C429        C  0.29235173  0.88143943  0.76747099    -0.09740
C430        C  0.28152193  0.87120666  0.72023886     0.06460
C431        C  0.23482231  0.87904007  0.71290059    -0.03500
C432        C  0.20249387  0.86558602  0.74715577    -0.07950
C433        C  0.21631560  0.85089570  0.79225079     0.05570
C434        C  0.25926330  0.87209756  0.80377223    -0.02980
Br435      Br  0.26267883  0.91286815  0.85502282    -0.02670
H436        H  0.32707281  0.89079182  0.77697611     0.09490
H437        H  0.16748863  0.87260261  0.73930989     0.07500
Br438      Br  0.21778170  0.92434206  0.66930013    -0.03100
C439        C  0.31026724  0.66841452  0.73710101    -0.09740
C440        C  0.30043299  0.67222894  0.78562405     0.06460
C441        C  0.25773424  0.65101068  0.79733944    -0.03500
C442        C  0.22055983  0.65442898  0.76643976    -0.07950
C443        C  0.22841094  0.66861214  0.71992408     0.05570
C444        C  0.27425776  0.65910654  0.70573047    -0.02980
Br445      Br  0.28506417  0.61452101  0.65824897    -0.02670
H446        H  0.34519340  0.66655583  0.72426954     0.09490
H447        H  0.18768710  0.64172079  0.77811939     0.07500
Br448      Br  0.25367117  0.60443019  0.84296788    -0.03100
C449        C  0.29962703  0.76867627  0.88048511    -0.09740
C450        C  0.29603335  0.72465254  0.86063525     0.06460
C451        C  0.25167478  0.70901540  0.87029933    -0.03500
C452        C  0.21484756  0.73677194  0.85901584    -0.07950
C453        C  0.22052933  0.78429137  0.85439234     0.05570
C454        C  0.26111256  0.79841359  0.87852557    -0.02980
Br455      Br  0.25533397  0.83643996  0.93225589    -0.02670
H456        H  0.33219650  0.78206497  0.89237447     0.09490
H457        H  0.18232342  0.72209552  0.86807719     0.07500
Br458      Br  0.24332918  0.67764683  0.92820564    -0.03100
C459        C  0.33883993  0.78296423  0.79916728    -0.09740
C460        C  0.35582579  0.74078823  0.79291004     0.06460
C461        C  0.38321333  0.73958424  0.75027736    -0.03500
C462        C  0.37524842  0.77419594  0.71538147    -0.07950
C463        C  0.33646539  0.80419463  0.72229101     0.05570
C464        C  0.31221030  0.79445208  0.76269427    -0.02980
Br465      Br  0.25594996  0.76402714  0.75442614    -0.02670
H466        H  0.36493134  0.80773136  0.80830304     0.09490
H467        H  0.39788547  0.77700112  0.68533525     0.07500
Br468      Br  0.43201889  0.69733925  0.74156128    -0.03100
C469        C  0.88970931  0.09460594  0.89532358    -0.09740
C470        C  0.92857307  0.11625596  0.91313058     0.06460
C471        C  0.93515263  0.16182873  0.90340023    -0.03500
C472        C  0.90364788  0.18424405  0.87517480    -0.07950
C473        C  0.86439620  0.16268184  0.85586679     0.05570
C474        C  0.85708652  0.11683226  0.86887304    -0.02980
Br475      Br  0.80301757  0.08004213  0.85999454    -0.02670
H476        H  0.88310350  0.05998939  0.90453014     0.09490
H477        H  0.91050841  0.21905174  0.86847611     0.07500
Br478      Br  0.98736147  0.19477834  0.92611048    -0.03100
C479        C  0.79127554  0.15018785  0.70942693    -0.09740
C480        C  0.74330733  0.15835467  0.71443625     0.06460
C481        C  0.72481118  0.14473133  0.75797997    -0.03500
C482        C  0.75290638  0.14907423  0.79715977    -0.07950
C483        C  0.80118613  0.15755635  0.79196887     0.05570
C484        C  0.81707274  0.14042684  0.74890254    -0.02980
Br485      Br  0.85434014  0.08774137  0.74620090    -0.02670
H486        H  0.80754179  0.14435510  0.67625429     0.09490
H487        H  0.73732374  0.14082832  0.83000620     0.07500
Br488      Br  0.66745709  0.11239577  0.76385469    -0.03100
C489        C  0.81863504  0.24307534  0.62501962    -0.09740
C490        C  0.80440736  0.28445791  0.64345216     0.06460
C491        C  0.75697467  0.29240873  0.63140467    -0.03500
C492        C  0.72616517  0.25538495  0.62672144    -0.07950
C493        C  0.74120594  0.21248997  0.63971411     0.05570
C494        C  0.78774403  0.20614344  0.62504542    -0.02980
Br495      Br  0.80315047  0.15903454  0.58226910    -0.02670
H496        H  0.85314991  0.23974251  0.61052204     0.09490
H497        H  0.68954263  0.26166657  0.62324924     0.07500
Br498      Br  0.73579998  0.34282595  0.59740306    -0.03100
C499        C  0.87409477  0.23352298  0.70522177    -0.09740
C500        C  0.86748272  0.28060521  0.71090541     0.06460
C501        C  0.88576245  0.29366698  0.75515988    -0.03500
C502        C  0.87723795  0.26612128  0.79459957    -0.07950
C503        C  0.86432306  0.22058306  0.78851886     0.05570
C504        C  0.88044243  0.20578731  0.74435948    -0.02980
Br505      Br  0.93297282  0.16726245  0.74185335    -0.02670
H506        H  0.88417795  0.21930758  0.67225278     0.09490
H507        H  0.88817596  0.27857266  0.82788999     0.07500
Br508      Br  0.93935186  0.33224733  0.75909679    -0.03100
C509        C  0.94634540  0.35862780  0.60243358    -0.09740
C510        C  0.92574593  0.39421430  0.57931705     0.06460
C511        C  0.87795710  0.39977167  0.58396203    -0.03500
C512        C  0.85272849  0.37217862  0.61392524    -0.07950
C513        C  0.87258256  0.33837131  0.64092810     0.05570
C514        C  0.92075862  0.33010108  0.63197506    -0.02980
Br515      Br  0.95650965  0.27991254  0.65145780    -0.02670
H516        H  0.98311254  0.35311095  0.59773414     0.09490
H517        H  0.81669614  0.37783702  0.61614919     0.07500
Br518      Br  0.84432127  0.44346627  0.54937720    -0.03100
C519        C  0.69327021  0.29978152  0.73510115    -0.09740
C520        C  0.68275042  0.29678867  0.78204948     0.06460
C521        C  0.65406379  0.25606328  0.78718668    -0.03500
C522        C  0.65648178  0.22121865  0.75074279    -0.07950
C523        C  0.69124414  0.22428999  0.71391013     0.05570
C524        C  0.71706701  0.26313682  0.71966516    -0.02980
Br525      Br  0.77306122  0.25392759  0.74876986    -0.02670
H526        H  0.66434741  0.30887685  0.71342960     0.09490
H527        H  0.63243907  0.19360043  0.75193152     0.07500
Br528      Br  0.60574189  0.24857653  0.83352214    -0.03100
C529        C  0.72209535  0.24822203  0.86032408    -0.09740
C530        C  0.73803743  0.29237211  0.85341196     0.06460
C531        C  0.78040499  0.29916290  0.87603674    -0.03500
C532        C  0.81385061  0.26443532  0.87362478    -0.07950
C533        C  0.80085462  0.22191607  0.85600770     0.05570
C534        C  0.75389315  0.21354767  0.86675991    -0.02980
Br535      Br  0.73892804  0.17170683  0.91547841    -0.02670
H536        H  0.68685884  0.24258905  0.87041117     0.09490
H537        H  0.84702847  0.26903512  0.88981898     0.07500
Br538      Br  0.78001940  0.33571374  0.93141119    -0.03100
C539        C  0.73957918  0.37430043  0.74545300    -0.09740
C540        C  0.75388681  0.35328981  0.78712846     0.06460
C541        C  0.80407562  0.35704406  0.79053582    -0.03500
C542        C  0.83012040  0.36458137  0.74936657    -0.07950
C543        C  0.81229397  0.35146699  0.70689380     0.05570
C544        C  0.76712045  0.37048450  0.70377330    -0.02980
Br545      Br  0.75985196  0.42497393  0.66933016    -0.02670
H546        H  0.70486584  0.38745792  0.74330707     0.09490
H547        H  0.86482434  0.37725871  0.75027255     0.07500
Br548      Br  0.84381835  0.36984460  0.84271766    -0.03100
C549        C  0.58078471  0.15916730  0.39632726    -0.09740
C550        C  0.59835814  0.11963536  0.41404220     0.06460
C551        C  0.64329396  0.10669595  0.40095757    -0.03500
C552        C  0.66980027  0.13328604  0.37080172    -0.07950
C553        C  0.65278024  0.17292907  0.35107961     0.05570
C554        C  0.60673275  0.18591218  0.36529485    -0.02980
Br555      Br  0.57386797  0.23910946  0.34828006    -0.02670
H556        H  0.54613729  0.16915895  0.40657372     0.09490
H557        H  0.70458455  0.12258808  0.36351721     0.07500
Br558      Br  0.67175482  0.05414394  0.42556430    -0.03100
C559        C  0.61612127  0.87018153  0.59109764    -0.09740
C560        C  0.62727010  0.91561931  0.59431549     0.06460
C561        C  0.65617640  0.92936497  0.63012831    -0.03500
C562        C  0.67786146  0.89783655  0.65784787    -0.07950
C563        C  0.66856524  0.85085202  0.65487403     0.05570
C564        C  0.63312420  0.83898737  0.62291732    -0.02980
Br565      Br  0.59064940  0.79111404  0.63198482    -0.02670
H566        H  0.58927268  0.85983720  0.56722081     0.09490
H567        H  0.70038969  0.91240397  0.68324885     0.07500
Br568      Br  0.66261019  0.99064753  0.64728379    -0.03100
C569        C  0.63121414  0.91575723  0.38833726    -0.09740
C570        C  0.59871398  0.89442706  0.41741593     0.06460
C571        C  0.59618000  0.84774373  0.41651219    -0.03500
C572        C  0.62682596  0.82376245  0.38796153    -0.07950
C573        C  0.66185409  0.84407112  0.36042802     0.05570
C574        C  0.66289857  0.89211621  0.36084763    -0.02980
Br575      Br  0.70525073  0.93254948  0.32959221    -0.02670
H576        H  0.63367424  0.95195033  0.38862106     0.09490
H577        H  0.62228382  0.78861881  0.38718965     0.07500
Br578      Br  0.55136459  0.81455289  0.45250142    -0.03100
C579        C  0.40999452  0.91667856  0.64503967    -0.09740
C580        C  0.39396064  0.92954933  0.60106816     0.06460
C581        C  0.35150848  0.91180073  0.58599784    -0.03500
C582        C  0.32708233  0.88143117  0.61417357    -0.07950
C583        C  0.34366910  0.86671282  0.65777439     0.05570
C584        C  0.38561313  0.88645172  0.67348287    -0.02980
Br585      Br  0.41328565  0.87614091  0.73298168    -0.02670
H586        H  0.44230462  0.93031414  0.65771091     0.09490
H587        H  0.29419055  0.86981797  0.60137389     0.07500
Br588      Br  0.32469786  0.92634357  0.52707965    -0.03100
C589        C  0.66198956  0.09134355  0.60283674    -0.09740
C590        C  0.61590983  0.10326373  0.59857493     0.06460
C591        C  0.60087999  0.14221593  0.62260425    -0.03500
C592        C  0.63217687  0.16807234  0.64905465    -0.07950
C593        C  0.67838426  0.15478483  0.65539108     0.05570
C594        C  0.69188423  0.11388511  0.63280310    -0.02980
Br595      Br  0.74680725  0.07999433  0.64332891    -0.02670
H596        H  0.67462428  0.06231905  0.58396907     0.09490
H597        H  0.62006847  0.19923180  0.66390639     0.07500
Br598      Br  0.53952401  0.16468939  0.61799438    -0.03100
C599        C  0.36188873  0.90626737  0.35394073    -0.09740
C600        C  0.36371267  0.85880600  0.35175531     0.06460
C601        C  0.39983984  0.83929077  0.37820282    -0.03500
C602        C  0.42730071  0.86576450  0.40847717    -0.07950
C603        C  0.42231600  0.91244889  0.41219028     0.05570
C604        C  0.38996056  0.93240131  0.38265537    -0.02980
Br605      Br  0.37801666  0.99527402  0.38072742    -0.02670
H606        H  0.33738434  0.92506610  0.33427920     0.09490
H607        H  0.45299567  0.84951340  0.42942647     0.07500
Br608      Br  0.41678372  0.77771020  0.37509678    -0.03100
C609        C  0.30801070  0.74905849  0.35829774    -0.09740
C610        C  0.29903724  0.79631278  0.36224355     0.06460
C611        C  0.25634332  0.80321521  0.38558846    -0.03500
C612        C  0.21945452  0.77138924  0.38040810    -0.07950
C613        C  0.22584732  0.72803626  0.35818675     0.05570
C614        C  0.27268762  0.71602973  0.36380246    -0.02980
Br615      Br  0.28376937  0.68145746  0.41863702    -0.02670
H616        H  0.34074215  0.73682095  0.34555551     0.09490
H617        H  0.18749109  0.78265694  0.39465294     0.07500
Br618      Br  0.25330962  0.84473843  0.43686846    -0.03100
C619        C  0.10555043  0.63715294  0.40588917    -0.09740
C620        C  0.10102944  0.59564878  0.38418995     0.06460
C621        C  0.12558936  0.58765336  0.34285114    -0.03500
C622        C  0.15473699  0.62112319  0.32429298    -0.07950
C623        C  0.16055862  0.66421299  0.34575648     0.05570
C624        C  0.13398653  0.67100737  0.38777130    -0.02980
Br625      Br  0.13256463  0.72248555  0.42723036    -0.02670
H626        H  0.08673912  0.64307182  0.43835716     0.09490
H627        H  0.17240540  0.61189973  0.29250195     0.07500
Br628      Br  0.12179149  0.53078701  0.31176949    -0.03100
C629        C  0.13070527  0.76910305  0.22316031    -0.09740
C630        C  0.14427908  0.81271615  0.23782410     0.06460
C631        C  0.13346168  0.81577446  0.28697155    -0.03500
C632        C  0.14337956  0.77890153  0.31653094    -0.07950
C633        C  0.15465511  0.73635130  0.29778678     0.05570
C634        C  0.13356338  0.73140898  0.25350003    -0.02980
Br635      Br  0.08668747  0.68592808  0.24622352    -0.02670
H636        H  0.10976684  0.76591300  0.19274494     0.09490
H637        H  0.13137538  0.78041308  0.35207883     0.07500
Br638      Br  0.07167068  0.83256779  0.30542923    -0.03100
C639        C  0.25535243  0.89400512  0.22847360    -0.09740
C640        C  0.21103595  0.87829014  0.24217119     0.06460
C641        C  0.20606829  0.88421099  0.29220936    -0.03500
C642        C  0.24503694  0.87989801  0.32167203    -0.07950
C643        C  0.28884820  0.86855411  0.30307320     0.05570
C644        C  0.29476821  0.88516322  0.25646510    -0.02980
Br645      Br  0.35487068  0.89545429  0.22943255    -0.02670
H646        H  0.25980648  0.90931488  0.19463580     0.09490
H647        H  0.24051193  0.88516375  0.35830738     0.07500
Br648      Br  0.15634515  0.91451752  0.32305869    -0.03100
C649        C  0.17496772  0.87855132  0.12379818    -0.09740
C650        C  0.15657986  0.87492517  0.17024730     0.06460
C651        C  0.11722861  0.90258948  0.17915750    -0.03500
C652        C  0.09642466  0.92721945  0.14384609    -0.07950
C653        C  0.11353897  0.92784609  0.09828689     0.05570
C654        C  0.15385776  0.90329140  0.08844544    -0.02980
Br655      Br  0.18091047  0.89936037  0.02692871    -0.02670
H656        H  0.20614235  0.86184289  0.11309991     0.09490
H657        H  0.06614534  0.94698490  0.15235800     0.07500
Br658      Br  0.08759200  0.91418146  0.23670415    -0.03100
C659        C  0.37876947  0.78687927  0.26236924    -0.09740
C660        C  0.33624190  0.80147381  0.28351102     0.06460
C661        C  0.29747876  0.78096107  0.26542243    -0.03500
C662        C  0.29819252  0.74498338  0.23959852    -0.07950
C663        C  0.33496737  0.73135718  0.21362239     0.05570
C664        C  0.37822582  0.75300743  0.22536281    -0.02980
Br665      Br  0.43526958  0.74064007  0.19341568    -0.02670
H666        H  0.41110612  0.80188603  0.27297799     0.09490
H667        H  0.26488771  0.73206578  0.23107757     0.07500
Br668      Br  0.23724612  0.79048412  0.27899813    -0.03100
C669        C  0.20585501  0.66785300  0.23310948    -0.09740
C670        C  0.22203274  0.67772917  0.27919915     0.06460
C671        C  0.26523048  0.65514770  0.28506484    -0.03500
C672        C  0.29696527  0.65035071  0.24655631    -0.07950
C673        C  0.28422553  0.66256623  0.20033985     0.05570
C674        C  0.23629875  0.65685342  0.19540746    -0.02980
Br675      Br  0.21413951  0.62029154  0.14512880    -0.02670
H676        H  0.17025621  0.66196256  0.22682358     0.09490
H677        H  0.33211936  0.64096258  0.25372053     0.07500
Br678      Br  0.27231985  0.61127436  0.33265903    -0.03100
C679        C  0.23160460  0.73503181  0.14247042    -0.09740
C680        C  0.28007745  0.73913303  0.14796953     0.06460
C681        C  0.29375968  0.78485305  0.14717368    -0.03500
C682        C  0.26333756  0.81856679  0.16412336    -0.07950
C683        C  0.21600852  0.80985586  0.17755285     0.05570
C684        C  0.20074240  0.77091601  0.15231248    -0.02980
Br685      Br  0.14841137  0.77250960  0.11153995    -0.02670
H686        H  0.21835376  0.70647275  0.12401851     0.09490
H687        H  0.27726964  0.85135785  0.16101636     0.07500
Br688      Br  0.35391500  0.80222070  0.12471704    -0.03100
C689        C  0.62720297  0.42012914  0.12079999    -0.09740
C690        C  0.60076881  0.39570546  0.08890536     0.06460
C691        C  0.60718224  0.34935694  0.08636722    -0.03500
C692        C  0.63962970  0.32898796  0.11528332    -0.07950
C693        C  0.66763319  0.35333425  0.14720467     0.05570
C694        C  0.66053906  0.40089126  0.14852603    -0.02980
Br695      Br  0.69204616  0.44749211  0.18294452    -0.02670
H696        H  0.62325730  0.45606641  0.12318861     0.09490
H697        H  0.64320409  0.29358472  0.11112740     0.07500
Br698      Br  0.57263909  0.31186856  0.04476192    -0.03100
C699        C  0.66852013  0.59027018  0.90482271    -0.09740
C700        C  0.62057000  0.59569292  0.90571740     0.06460
C701        C  0.60202093  0.62720199  0.87495268    -0.03500
C702        C  0.63123930  0.65413734  0.84768226    -0.07950
C703        C  0.68024282  0.65245656  0.84907612     0.05570
C704        C  0.69774521  0.61577588  0.87545007    -0.02980
Br705      Br  0.75557653  0.58676849  0.86567038    -0.02670
H706        H  0.68333918  0.56383383  0.92541183     0.09490
H707        H  0.61357054  0.67587074  0.82446938     0.07500
Br708      Br  0.53713264  0.63733403  0.86747437    -0.03100
C709        C  0.59563327  0.65897109  0.10721660    -0.09740
C710        C  0.60770197  0.61659039  0.09097176     0.06460
C711        C  0.65006073  0.59855126  0.10448674    -0.03500
C712        C  0.67840309  0.62194034  0.13517123    -0.07950
C713        C  0.66693224  0.66421350  0.15381661     0.05570
C714        C  0.62443169  0.68348840  0.13740680    -0.02980
Br715      Br  0.59991312  0.74242647  0.14948024    -0.02670
H716        H  0.56328128  0.67319795  0.09609919     0.09490
H717        H  0.71075225  0.60676590  0.14322812     0.07500
Br718      Br  0.67344230  0.54339140  0.07902326    -0.03100
C719        C  0.39137242  0.69840387  0.88265460    -0.09740
C720        C  0.36701881  0.67489705  0.84777662     0.06460
C721        C  0.37737007  0.62833484  0.84255394    -0.03500
C722        C  0.40497308  0.60699029  0.87543770    -0.07950
C723        C  0.42514019  0.63043072  0.91248250     0.05570
C724        C  0.41876971  0.67701473  0.91525589    -0.02980
Br725      Br  0.44314215  0.71376390  0.96451978    -0.02670
H726        H  0.38817714  0.73414143  0.88574269     0.09490
H727        H  0.41167269  0.57155727  0.87133487     0.07500
Br728      Br  0.36252041  0.59041536  0.79034545    -0.03100
C729        C  0.63628461  0.35821564  0.84664499    -0.09740
C730        C  0.68501409  0.36176773  0.84617124     0.06460
C731        C  0.70297982  0.39887731  0.87263280    -0.03500
C732        C  0.67510868  0.42264877  0.90448672    -0.07950
C733        C  0.62755403  0.41611872  0.90669038     0.05570
C734        C  0.60793146  0.38393729  0.87627241    -0.02980
Br735      Br  0.54264042  0.37116236  0.87391684    -0.02670
H736        H  0.61884533  0.33619178  0.82300779     0.09490
H737        H  0.69010871  0.44980905  0.92460833     0.07500
Br738      Br  0.75673489  0.43337369  0.85743136    -0.03100
C739        C  0.36835808  0.64296312  0.06483598    -0.09740
C740        C  0.40091702  0.61598515  0.08613655     0.06460
C741        C  0.40855332  0.62118975  0.13399543    -0.03500
C742        C  0.38149195  0.65124336  0.16018007    -0.07950
C743        C  0.34726797  0.67816778  0.13967755     0.05570
C744        C  0.34192571  0.67393887  0.09022897    -0.02980
Br745      Br  0.29912017  0.70536742  0.05182362    -0.02670
H746        H  0.36305186  0.63942586  0.02760006     0.09490
H747        H  0.38672396  0.65273207  0.19739054     0.07500
Br748      Br  0.45298429  0.58554370  0.16560176    -0.03100
C749        C  0.34636942  0.37525437  0.89235678    -0.09740
C750        C  0.35432383  0.37795689  0.84351897     0.06460
C751        C  0.39102863  0.40671737  0.82899018    -0.03500
C752        C  0.40985270  0.43769258  0.86033045    -0.07950
C753        C  0.39780413  0.43743304  0.90796634     0.05570
C754        C  0.36709617  0.40429712  0.92397842    -0.02980
Br755      Br  0.35627012  0.39191865  0.98859303    -0.02670
H756        H  0.32498956  0.34946078  0.90765550     0.09490
H757        H  0.43764608  0.45938666  0.84815951     0.07500
Br758      Br  0.42917464  0.39625532  0.77472192    -0.03100
C759        C  0.26651290  0.38477787  0.69576977    -0.09740
C760        C  0.22268021  0.36826373  0.70945961     0.06460
C761        C  0.21103313  0.38792912  0.75373936    -0.03500
C762        C  0.24585906  0.39360648  0.78762194    -0.07950
C763        C  0.29261995  0.38472298  0.77750333     0.05570
C764        C  0.30033243  0.39628555  0.72947309    -0.02980
Br765      Br  0.34851612  0.43587236  0.70938066    -0.02670
H766        H  0.27143969  0.39661160  0.66118380     0.09490
H767        H  0.23853656  0.41455755  0.81730839     0.07500
Br768      Br  0.16505526  0.43399142  0.75898674    -0.03100
C769        C  0.12388539  0.38279977  0.67018462    -0.09740
C770        C  0.15885805  0.35795639  0.64771805     0.06460
C771        C  0.15970071  0.36012942  0.59787655    -0.03500
C772        C  0.13495932  0.39364536  0.57526209    -0.07950
C773        C  0.10372895  0.42134536  0.59954862     0.05570
C774        C  0.09658727  0.41351749  0.64751433    -0.02980
Br775      Br  0.04898233  0.44057651  0.68561669    -0.02670
H776        H  0.11569942  0.37747365  0.70612577     0.09490
H777        H  0.13709796  0.39525145  0.53753191     0.07500
Br778      Br  0.18014997  0.31383467  0.55562895    -0.03100
C779        C  0.21073724  0.29858533  0.85342256    -0.09740
C780        C  0.22086314  0.25258068  0.84738665     0.06460
C781        C  0.26597404  0.24354477  0.86327778    -0.03500
C782        C  0.30163510  0.27448866  0.85244300    -0.07950
C783        C  0.29022197  0.31834174  0.83833053     0.05570
C784        C  0.24589869  0.33047724  0.85555793    -0.02980
Br785      Br  0.23493349  0.37902518  0.89900666    -0.02670
H786        H  0.17702727  0.31031883  0.86264400     0.09490
H787        H  0.33637555  0.26631462  0.86138914     0.07500
Br788      Br  0.27256325  0.21190266  0.92069929    -0.03100
C789        C  0.13977471  0.22756843  0.74239868    -0.09740
C790        C  0.15117169  0.24021959  0.78867369     0.06460
C791        C  0.13673052  0.28421553  0.79600386    -0.03500
C792        C  0.14742809  0.31611433  0.76169896    -0.07950
C793        C  0.16103430  0.30250343  0.71581028     0.05570
C794        C  0.14103629  0.25991532  0.70619311    -0.02980
Br795      Br  0.09609940  0.25387631  0.65766162    -0.02670
H796        H  0.12243401  0.19596428  0.73648387     0.09490
H797        H  0.13812262  0.34960595  0.77022425     0.07500
Br798      Br  0.08687510  0.29651481  0.83881566    -0.03100
C799        C  0.11144616  0.17371610  0.92540806    -0.09740
C800        C  0.10767394  0.12836982  0.91481758     0.06460
C801        C  0.13389144  0.11140879  0.87695574    -0.03500
C802        C  0.15735358  0.14051815  0.84726532    -0.07950
C803        C  0.16226130  0.18671477  0.85708035     0.05570
C804        C  0.13998597  0.20230602  0.89924804    -0.02980
Br805      Br  0.14949253  0.25770932  0.93182702    -0.02670
H806        H  0.09392010  0.18668999  0.95624865     0.09490
H807        H  0.17325374  0.12515711  0.81710051     0.07500
Br808      Br  0.14557230  0.04893439  0.86607647    -0.03100
C809        C  0.34460381  0.32045950  0.72972400    -0.09740
C810        C  0.35538111  0.32036742  0.77594863     0.06460
C811        C  0.38258944  0.28096657  0.78547160    -0.03500
C812        C  0.37957234  0.24312021  0.75285387    -0.07950
C813        C  0.34502739  0.24443993  0.71675054     0.05570
C814        C  0.31971918  0.28325962  0.71903080    -0.02980
Br815      Br  0.26031483  0.27630314  0.74601585    -0.02670
H816        H  0.37386354  0.32677637  0.70639956     0.09490
H817        H  0.40066336  0.21381414  0.75742143     0.07500
Br818      Br  0.42526736  0.27955412  0.83592560    -0.03100
C819        C  0.21444030  0.25254749  0.64187007    -0.09740
C820        C  0.22609130  0.29832349  0.64965711     0.06460
C821        C  0.27110052  0.30782000  0.62957272    -0.03500
C822        C  0.30498199  0.27341114  0.62784064    -0.07950
C823        C  0.29412391  0.22983082  0.64544091     0.05570
C824        C  0.24822013  0.21938892  0.63492794    -0.02980
Br825      Br  0.23917973  0.18367100  0.57988443    -0.02670
H826        H  0.18066503  0.24428565  0.63004067     0.09490
H827        H  0.34001963  0.28390014  0.62057955     0.07500
Br828      Br  0.28371228  0.35529478  0.58581702    -0.03100
C829        C  0.30304477  0.17454475  0.76891212    -0.09740
C830        C  0.29205371  0.17779238  0.72106997     0.06460
C831        C  0.24715364  0.16150939  0.71134125    -0.03500
C832        C  0.21207011  0.16740051  0.74518203    -0.07950
C833        C  0.22274494  0.18590611  0.78929483     0.05570
C834        C  0.26748982  0.17249374  0.80256041    -0.02980
Br835      Br  0.27478915  0.12726005  0.84888348    -0.02670
H836        H  0.33830407  0.17014810  0.77961088     0.09490
H837        H  0.17880944  0.15230708  0.73909250     0.07500
Br838      Br  0.23817504  0.11386387  0.66733984    -0.03100
C839        C  0.39630038  0.10764885  0.63298233    -0.09740
C840        C  0.41952233  0.13038167  0.59702459     0.06460
C841        C  0.41677939  0.17747112  0.59604874    -0.03500
C842        C  0.39065083  0.19998586  0.62984534    -0.07950
C843        C  0.36189806  0.17747334  0.66225204     0.05570
C844        C  0.36832543  0.13009817  0.66577338    -0.02980
Br845      Br  0.34685306  0.09158883  0.71517995    -0.02670
H846        H  0.40013468  0.07174770  0.63584963     0.09490
H847        H  0.39160735  0.23586247  0.62915766     0.07500
Br848      Br  0.44372814  0.21411265  0.54760555    -0.03100
C849        C  0.13278023  0.35488532  0.33744732    -0.09740
C850        C  0.17989832  0.35723558  0.35035652     0.06460
C851        C  0.18997588  0.38248985  0.39158220    -0.03500
C852        C  0.15446162  0.40258783  0.41768541    -0.07950
C853        C  0.10884275  0.40022697  0.40315957     0.05570
C854        C  0.09827812  0.37766096  0.36192576    -0.02980
Br855      Br  0.03719007  0.37797848  0.33679493    -0.02670
H856        H  0.12091881  0.33494685  0.30888238     0.09490
H857        H  0.16253823  0.42053013  0.44956479     0.07500
Br858      Br  0.24993259  0.39078944  0.41769174    -0.03100
C859        C  0.16809046  0.31056220  0.24179795    -0.09740
C860        C  0.19685689  0.30083849  0.28147277     0.06460
C861        C  0.21378817  0.25815623  0.27804397    -0.03500
C862        C  0.18417614  0.22650585  0.26092404    -0.07950
C863        C  0.17796944  0.23164645  0.21380811     0.05570
C864        C  0.16003472  0.27639490  0.20648823    -0.02980
Br865      Br  0.11473412  0.28964160  0.16058010    -0.02670
H866        H  0.15168960  0.34235715  0.23784891     0.09490
H867        H  0.15228824  0.22299539  0.28107530     0.07500
Br868      Br  0.27286364  0.26056875  0.25227955    -0.03100
C869        C  0.20143590  0.14606538  0.11147556    -0.09740
C870        C  0.17779977  0.17075831  0.14673080     0.06460
C871        C  0.12958490  0.16112790  0.15301140    -0.03500
C872        C  0.10842829  0.12856236  0.12539978    -0.07950
C873        C  0.13256433  0.10393433  0.09115347     0.05570
C874        C  0.17973609  0.11338461  0.08404945    -0.02980
Br875      Br  0.21738799  0.08190002  0.03919779    -0.02670
H876        H  0.23791766  0.15094138  0.10570003     0.09490
H877        H  0.07183427  0.12245171  0.13118133     0.07500
Br878      Br  0.08713523  0.18564543  0.19885038    -0.03100
C879        C  0.25077068  0.21889287  0.36375045    -0.09740
C880        C  0.29857018  0.22197782  0.35068828     0.06460
C881        C  0.31739048  0.26098879  0.37056644    -0.03500
C882        C  0.29310749  0.30115915  0.36485491    -0.07950
C883        C  0.24488797  0.29994749  0.35619567     0.05570
C884        C  0.22453356  0.25856712  0.37103494    -0.02980
Br885      Br  0.15992259  0.25269465  0.38593845    -0.02670
H886        H  0.23293427  0.18784117  0.36871803     0.09490
H887        H  0.30978025  0.33107259  0.37695590     0.07500
Br888      Br  0.34833257  0.25492915  0.42896506    -0.03100
C889        C  0.25037447  0.14638416  0.29224955    -0.09740
C890        C  0.29735273  0.15754003  0.28447480     0.06460
C891        C  0.31107980  0.14198162  0.23979984    -0.03500
C892        C  0.28161162  0.14973556  0.20178772    -0.07950
C893        C  0.23573944  0.16379379  0.21053327     0.05570
C894        C  0.21973773  0.14551478  0.25402556    -0.02980
Br895      Br  0.15900043  0.12110992  0.26357781    -0.02670
H896        H  0.23872683  0.13362740  0.32544592     0.09490
H897        H  0.29168181  0.13761537  0.16773223     0.07500
Br898      Br  0.35683197  0.09602224  0.23419616    -0.03100
C899        C  0.32953997  0.13681036  0.38573836    -0.09740
C900        C  0.35571560  0.15727978  0.34957305     0.06460
C901        C  0.40384349  0.14651982  0.34684048    -0.03500
C902        C  0.42350900  0.12004510  0.38127526    -0.07950
C903        C  0.39721230  0.10237629  0.41820483     0.05570
C904        C  0.34954581  0.11111174  0.42026054    -0.02980
Br905      Br  0.30954983  0.09206279  0.47067801    -0.02670
H906        H  0.29277932  0.14189316  0.38852418     0.09490
H907        H  0.45999773  0.11234074  0.37855956     0.07500
Br908      Br  0.44692182  0.16018625  0.29712717    -0.03100
C909        C  0.37316369  0.21230548  0.23700443    -0.09740
C910        C  0.36290143  0.21993906  0.28496231     0.06460
C911        C  0.38138525  0.26198096  0.29871247    -0.03500
C912        C  0.38027255  0.29816344  0.26742866    -0.07950
C913        C  0.36926223  0.29199109  0.21963435     0.05570
C914        C  0.38002016  0.24759570  0.20544873    -0.02980
Br915      Br  0.42306112  0.23469393  0.15557299    -0.02670
H916        H  0.38367311  0.18001914  0.22498658     0.09490
H917        H  0.39530096  0.32883389  0.27923030     0.07500
Br918      Br  0.42695157  0.26646792  0.34646457    -0.03100
C919        C  0.26710042  0.37653006  0.21334693    -0.09740
C920        C  0.31229146  0.36035053  0.22180404     0.06460
C921        C  0.32782955  0.37677096  0.26516079    -0.03500
C922        C  0.29638141  0.37665583  0.30327989    -0.07950
C923        C  0.24896349  0.36853427  0.29528562     0.05570
C924        C  0.23619714  0.38360453  0.25092140    -0.02980
Br925      Br  0.18619986  0.42476146  0.24448974    -0.02670
H926        H  0.25734642  0.38928962  0.18009361     0.09490
H927        H  0.30751691  0.38954043  0.33645913     0.07500
Br928      Br  0.38205483  0.41419978  0.26818301    -0.03100
C929        C  0.28908531  0.22325563  0.13786892    -0.09740
C930        C  0.24205192  0.23165211  0.14994704     0.06460
C931        C  0.22960042  0.27498142  0.13572208    -0.03500
C932        C  0.26168489  0.31036627  0.14286499    -0.07950
C933        C  0.30837279  0.30061955  0.15339271     0.05570
C934        C  0.32037488  0.25954785  0.13244806    -0.02980
Br935      Br  0.35207106  0.26255726  0.07319824    -0.02670
H936        H  0.29917883  0.19181007  0.12281044     0.09490
H937        H  0.25384411  0.34216395  0.12761183     0.07500
Br938      Br  0.19423353  0.27866926  0.07981569    -0.03100
C939        C  0.44812402  0.38637492  0.12495465    -0.09740
C940        C  0.42497692  0.41776016  0.09827325     0.06460
C941        C  0.37712025  0.42201952  0.10420979    -0.03500
C942        C  0.35258841  0.39099770  0.13109554    -0.07950
C943        C  0.37457924  0.35856688  0.15858611     0.05570
C944        C  0.42427868  0.35923070  0.15737916    -0.02980
Br945      Br  0.46509265  0.33154618  0.20074424    -0.02670
H946        H  0.48548230  0.38469127  0.12223081     0.09490
H947        H  0.31557921  0.39352317  0.13114027     0.07500
Br948      Br  0.34318295  0.47012772  0.07730594    -0.03100
loop_ 
_geom_bond_atom_site_label_1 
_geom_bond_atom_site_label_2 
_geom_bond_distance 
_geom_bond_site_symmetry_2 
_ccdc_geom_bond_type 
C1          C913   1.621       .  S
C1          C920   1.606       .  S
C1          C933   1.618       .  S
C1          C943   1.558       .  S
C2          C880   1.630       .  S
C2          C890   1.611       .  S
C2          C900   1.550       .  S
C2          C910   1.625       .  S
C3          C863   1.609       .  S
C3          C870   1.550       .  S
C3          C893   1.626       .  S
C3          C930   1.606       .  S
C4          C850   1.555       .  S
C4          C860   1.606       .  S
C4          C883   1.615       .  S
C4          C923   1.579       .  S
C5          C813   1.574       .  S
C5          C823   1.632       .  S
C5          C830   1.576       .  S
C5          C843   1.556       .  S
C6          C780   1.609       .  S
C6          C790   1.614       .  S
C6          C803   1.559       .  S
C6          C833   1.612       .  S
C7          C760   1.638       .  S
C7          C770   1.558       .  S
C7          C793   1.625       .  S
C7          C820   1.636       .  S
C8          C750   1.555       .  S
C8          C763   1.653       .  S
C8          C783   1.596       .  S
C8          C810   1.593       .  S
O9           C17   1.245       .  A
O9          Co29   1.949       .  S
O10          C18   1.267       .  A
O10         Co30   1.970       .  S
O11          C19   1.296       .  A
O11         Co31   2.096   1_556  S
O12          C20   1.278       .  A
O12         Co32   2.057   1_556  S
O13          C19   1.266       .  A
O13         Co30   1.895       .  S
O14          C20   1.248       .  A
O14         Co29   1.939       .  S
O15          C18   1.282       .  A
O15         Co32   2.038   1_556  S
O16          C17   1.263       .  A
O16         Co31   2.029   1_556  S
C17         C753   1.475       .  S
C18         C700   1.497       .  S
C19         C723   1.486       .  S
C20         C733   1.491       .  S
O21          C34   1.272       .  A
O21         Co29   2.052   1_554  S
O22          C35   1.294       .  A
O22         Co30   2.099   1_554  S
O23          C36   1.267       .  A
O23         Co31   1.971       .  S
O24          C37   1.249       .  A
O24         Co32   1.959       .  S
O25          C37   1.263       .  A
O25         Co30   2.026   1_554  S
O26          C36   1.278       .  A
O26         Co29   2.028   1_554  S
O27          C34   1.250       .  A
O27         Co32   1.939       .  S
O28          C35   1.266       .  A
O28         Co31   1.898       .  S
Co29         O33   2.029       .  S
Co30         O33   2.022       .  S
Co31         O33   2.023   1_554  S
Co32         O33   2.008   1_554  S
C34         C690   1.490       .  S
C35         C740   1.476       .  S
C36         C940   1.474       .  S
C37         C710   1.478       .  S
C38         C663   1.592       .  S
C38         C673   1.632       .  S
C38         C680   1.638       .  S
C38         C743   1.549       .  S
C39         C630   1.663       .  S
C39         C640   1.657       .  S
C39         C650   1.595       .  S
C39         C683   1.670       .  S
C40         C613   1.671       .  S
C40         C623   1.580       .  S
C40         C633   1.632       .  S
C40         C670   1.653       .  S
C41         C600   1.584       .  S
C41         C610   1.642       .  S
C41         C643   1.636       .  S
C41         C660   1.574       .  S
O42          C50   1.263       .  A
O42         Co62   1.882       .  S
O43          C51   1.254       .  A
O43         Co63   1.951       .  S
O44          C52   1.262       .  A
O44         Co64   2.021   1_565  S
O45          C53   1.284       .  A
O45         Co65   2.042       .  S
O46          C52   1.249       .  A
O46         Co63   1.958       .  S
O47          C53   1.268       .  A
O47         Co62   1.976       .  S
O48          C51   1.275       .  A
O48         Co65   2.047   1_565  S
O49          C50   1.300       .  A
O49         Co64   2.104       .  S
C50         C840   1.485       .  S
C51         C560   1.478       .  S
C52         C580   1.489       .  S
C53         C590   1.500       .  S
O54          C67   1.261       .  A
O54         Co62   2.019       .  S
O55          C68   1.280       .  A
O55         Co63   2.050       .  S
O56          C69   1.264       .  A
O56         Co64   1.892       .  S
O57          C70   1.252       .  A
O57         Co65   1.943   1_565  S
O58          C70   1.270       .  A
O58         Co63   2.031       .  S
O59          C69   1.293       .  A
O59         Co62   2.085       .  S
O60          C67   1.248       .  A
O60         Co65   1.961       .  S
O61          C68   1.268       .  A
O61         Co64   1.987   1_565  S
Co62         O66   2.031       .  S
Co63         O66   2.047   1_565  S
Co64         O66   2.017       .  S
Co65         O66   2.020       .  S
C67         C550   1.476       .  S
C68         C603   1.510       .  S
C69         C903   1.479       .  S
C70         C570   1.479       .  S
C71         C520   1.653       .  S
C71         C530   1.590       .  S
C71         C540   1.636       .  S
C71         C730   1.583       .  S
C72         C490   1.616       .  S
C72         C500   1.652       .  S
C72         C513   1.562       .  S
C72         C543   1.636       .  S
C73         C480   1.563       .  S
C73         C493   1.611       .  S
C73         C523   1.612       .  S
C73         C593   1.559       .  S
C74         C473   1.560       .  S
C74         C483   1.613       .  S
C74         C503   1.629       .  S
C74         C533   1.603       .  S
C75         C440   1.602       .  S
C75         C450   1.641       .  S
C75         C460   1.591       .  S
C75         C720   1.555       .  S
C76         C420   1.588       .  S
C76         C430   1.612       .  S
C76         C463   1.578       .  S
C76         C583   1.546       .  S
C77         C400   1.636       .  S
C77         C410   1.558       .  S
C77         C423   1.620       .  S
C77         C443   1.609       .  S
C78         C390   1.560       .  S
C78         C403   1.615       .  S
C78         C433   1.643       .  S
C78         C453   1.638       .  S
C79         C363   1.580       .  S
C79         C370   1.641       .  S
C79         C380   1.648       .  S
C79         C573   1.556       .  S
C80         C330   1.673       .  S
C80         C340   1.624       .  S
C80         C350   1.565       .  S
C80         C383   1.648       .  S
C81         C320   1.629       .  S
C81         C333   1.655       .  S
C81         C360   1.586       .  S
C81         C713   1.562       .  S
C82         C310   1.585       .  S
C82         C323   1.645       .  S
C82         C343   1.654       .  S
C82         C373   1.674       .  S
C83         C283   1.654       .  S
C83         C290   1.622       .  S
C83         C300   1.614       .  S
C83         C703   1.588       .  S
C84         C250   1.625       .  S
C84         C260   1.620       .  S
C84         C270   1.557       .  S
C84         C293   1.625       .  S
C85         C240   1.629       .  S
C85         C253   1.623       .  S
C85         C280   1.655       .  S
C85         C563   1.588       .  S
C86         C230   1.542       .  S
C86         C243   1.612       .  S
C86         C263   1.566       .  S
C86         C303   1.586       .  S
O87          C95   1.275       .  A
O87        Co107   2.033   1_556  S
O88          C96   1.297       .  A
O88        Co108   2.096   1_656  S
O89          C97   1.250       .  A
O89        Co109   1.961   1_565  S
O90          C98   1.267       .  A
O90        Co110   1.961       .  S
O91          C97   1.260       .  A
O91        Co108   2.005   1_556  S
O92          C98   1.279       .  A
O92        Co107   2.038   1_656  S
O93          C96   1.263       .  A
O93        Co110   1.892   1_565  S
O94          C95   1.250       .  A
O94        Co109   1.939       .  S
C95         C800   1.477       .  S
C96         C233   1.474       .  S
C97         C393   1.477       .  S
C98         C470   1.483       .  S
O99         C112   1.252       .  A
O99        Co107   1.964   1_655  S
O100        C113   1.272       .  A
O100       Co108   1.972       .  S
O101        C114   1.273       .  A
O101       Co109   2.045   1_554  S
O102        C115   1.290       .  A
O102       Co110   2.086   1_564  S
O103        C115   1.265       .  A
O103       Co108   1.880   1_655  S
O104        C114   1.253       .  A
O104       Co107   1.942       .  S
O105        C112   1.261       .  A
O105       Co110   2.015   1_554  S
O106        C113   1.278       .  A
O106       Co109   2.034   1_564  S
Co107       O111   2.011       .  S
Co108       O111   1.995   1_565  S
Co109       O111   2.024   1_556  S
Co110       O111   2.006   1_656  S
C112        C220   1.473       .  S
C113        C653   1.495       .  S
C114        C873   1.489       .  S
C115        C313   1.452       .  S
C116        C190   1.602       .  S
C116        C200   1.632       .  S
C116        C210   1.613       .  S
C116        C553   1.556       .  S
C117        C170   1.607       .  S
C117        C180   1.615       .  S
C117        C213   1.633       .  S
C117        C223   1.558       .  S
C118        C160   1.616       .  S
C118        C173   1.597       .  S
C118        C193   1.579       .  S
C118        C693   1.567       .  S
C119        C153   1.562       .  S
C119        C163   1.636       .  S
C119        C183   1.629       .  S
C119        C203   1.621       .  S
O120        C128   1.266       .  A
O120       Co140   1.897       .  S
O121        C129   1.253       .  A
O121       Co141   1.938       .  S
O122        C130   1.262       .  A
O122       Co142   2.032       .  S
O123        C131   1.275       .  A
O123       Co143   2.013   1_455  S
O124        C130   1.248       .  A
O124       Co141   1.957       .  S
O125        C131   1.268       .  A
O125       Co140   1.965       .  S
O126        C129   1.275       .  A
O126       Co143   2.043   1_455  S
O127        C128   1.290       .  A
O127       Co142   2.086       .  S
C128        C853   1.459       .  S
C129        C413   1.477       .  S
C130        C620   1.474       .  S
C131        C773   1.484       .  S
O132        C145   1.263       .  A
O132       Co140   2.003   1_655  S
O133        C146   1.283       .  A
O133       Co141   2.027   1_655  S
O134        C147   1.265       .  A
O134       Co142   1.875   1_655  S
O135        C148   1.258       .  A
O135       Co143   1.960       .  S
O136        C148   1.272       .  A
O136       Co141   2.015   1_655  S
O137        C147   1.291       .  A
O137       Co140   2.087   1_655  S
O138        C145   1.258       .  A
O138       Co143   1.971       .  S
O139        C146   1.263       .  A
O139       Co142   1.964   1_655  S
Co140       O144   1.988       .  S
Co141       O144   1.987       .  S
Co142       O144   2.005       .  S
Co143       O144   2.019   1_655  S
C145        C510   1.475       .  S
C146        C353   1.488       .  S
C147        C150   1.474       .  S
C148        C273   1.464       .  S
C149        C150   1.404       .  A
C149        C154   1.405       .  A
C149        H156   1.084       .  S
C150        C151   1.398       .  A
C151        C152   1.381       .  A
C151       Br158   1.929       .  S
C152        C153   1.412       .  A
C152        H157   1.052       .  S
C153        C154   1.434       .  A
C154       Br155   1.922       .  S
C159        C160   1.439       .  A
C159        C164   1.429       .  A
C159        H166   1.083       .  S
C160        C161   1.395       .  A
C161        C162   1.392       .  A
C161       Br168   1.920       .  S
C162        C163   1.432       .  A
C162        H167   1.066       .  S
C163        C164   1.425       .  A
C164       Br165   1.922       .  S
C169        C170   1.411       .  A
C169        C174   1.420       .  A
C169        H176   1.081       .  S
C170        C171   1.406       .  A
C171        C172   1.404       .  A
C171       Br178   1.921       .  S
C172        C173   1.422       .  A
C172        H177   1.074       .  S
C173        C174   1.416       .  A
C174       Br175   1.914       .  S
C179        C180   1.428       .  A
C179        C184   1.404       .  A
C179        H186   1.066       .  S
C180        C181   1.420       .  A
C181        C182   1.420       .  A
C181       Br188   1.921       .  S
C182        C183   1.419       .  A
C182        H187   1.071       .  S
C183        C184   1.401       .  A
C184       Br185   1.920       .  S
C189        C190   1.366       .  A
C189        C194   1.353       .  A
C189        H196   1.087       .  S
C190        C191   1.460       .  A
C191        C192   1.461       .  A
C191       Br198   1.915       .  S
C192        C193   1.447       .  A
C192        H197   1.078       .  S
C193        C194   1.381       .  A
C194       Br195   1.868       .  S
C199        C200   1.409       .  A
C199        C204   1.416       .  A
C199        H206   1.079       .  S
C200        C201   1.423       .  A
C201        C202   1.417       .  A
C201       Br208   1.910       .  S
C202        C203   1.418       .  A
C202        H207   1.063       .  S
C203        C204   1.433       .  A
C204       Br205   1.930       .  S
C209        C210   1.424       .  A
C209        C214   1.416       .  A
C209        H216   1.075       .  S
C210        C211   1.405       .  A
C211        C212   1.412       .  A
C211       Br218   1.914       .  S
C212        C213   1.426       .  A
C212        H217   1.069       .  S
C213        C214   1.416       .  A
C214       Br215   1.915       .  S
C219        C220   1.391       .  A
C219        C224   1.391       .  A
C219        H226   1.085       .  S
C220        C221   1.399       .  A
C221        C222   1.405       .  A
C221       Br228   1.917       .  S
C222        C223   1.423       .  A
C222        H227   1.078       .  S
C223        C224   1.435       .  A
C224       Br225   1.918       .  S
C229        C230   1.412       .  A
C229        C234   1.399       .  A
C229        H236   1.081       .  S
C230        C231   1.438       .  A
C231        C232   1.391       .  A
C231       Br238   1.930       .  S
C232        C233   1.391       .  A
C232        H237   1.085       .  S
C233        C234   1.409       .  A
C234       Br235   1.922       .  S
C239        C240   1.429       .  A
C239        C244   1.408       .  A
C239        H246   1.075       .  S
C240        C241   1.441       .  A
C241        C242   1.428       .  A
C241       Br248   1.921       .  S
C242        C243   1.423       .  A
C242        H247   1.081       .  S
C243        C244   1.397       .  A
C244       Br245   1.920       .  S
C249        C250   1.423       .  A
C249        C254   1.416       .  A
C249        H256   1.066       .  S
C250        C251   1.427       .  A
C251        C252   1.426       .  A
C251       Br258   1.916       .  S
C252        C253   1.420       .  A
C252        H257   1.080       .  S
C253        C254   1.401       .  A
C254       Br255   1.922       .  S
C259        C260   1.426       .  A
C259        C264   1.397       .  A
C259        H266   1.072       .  S
C260        C261   1.405       .  A
C261        C262   1.398       .  A
C261       Br268   1.918       .  S
C262        C263   1.417       .  A
C262        H267   1.069       .  S
C263        C264   1.412       .  A
C264       Br265   1.921       .  S
C269        C270   1.417       .  A
C269        C274   1.395       .  A
C269        H276   1.073       .  S
C270        C271   1.440       .  A
C271        C272   1.394       .  A
C271       Br278   1.922       .  S
C272        C273   1.389       .  A
C272        H277   1.085       .  S
C273        C274   1.397       .  A
C274       Br275   1.917       .  S
C279        C280   1.413       .  A
C279        C284   1.430       .  A
C279        H286   1.067       .  S
C280        C281   1.451       .  A
C281        C282   1.400       .  A
C281       Br288   1.934       .  S
C282        C283   1.389       .  A
C282        H287   1.074       .  S
C283        C284   1.454       .  A
C284       Br285   1.932       .  S
C289        C290   1.422       .  A
C289        C294   1.430       .  A
C289        H296   1.081       .  S
C290        C291   1.447       .  A
C291        C292   1.408       .  A
C291       Br298   1.922       .  S
C292        C293   1.392       .  A
C292        H297   1.078       .  S
C293        C294   1.425       .  A
C294       Br295   1.920       .  S
C299        C300   1.373       .  A
C299        C304   1.355       .  A
C299        H306   1.089       .  S
C300        C301   1.448       .  A
C301        C302   1.482       .  A
C301       Br308   1.918       .  S
C302        C303   1.458       .  A
C302        H307   1.080       .  S
C303        C304   1.377       .  A
C304       Br305   1.866       .  S
C309        C310   1.433       .  A
C309        C314   1.384       .  A
C309        H316   1.073       .  S
C310        C311   1.431       .  A
C311        C312   1.398       .  A
C311       Br318   1.893       .  S
C312        C313   1.386       .  A
C312        H317   1.086       .  S
C313        C314   1.390       .  A
C314       Br315   1.921       .  S
C319        C320   1.427       .  A
C319        C324   1.438       .  A
C319        H326   1.070       .  S
C320        C321   1.425       .  A
C321        C322   1.418       .  A
C321       Br328   1.909       .  S
C322        C323   1.412       .  A
C322        H327   1.081       .  S
C323        C324   1.438       .  A
C324       Br325   1.918       .  S
C329        C330   1.425       .  A
C329        C334   1.440       .  A
C329        H336   1.066       .  S
C330        C331   1.447       .  A
C331        C332   1.429       .  A
C331       Br338   1.929       .  S
C332        C333   1.422       .  A
C332        H337   1.083       .  S
C333        C334   1.440       .  A
C334       Br335   1.921       .  S
C339        C340   1.412       .  A
C339        C344   1.379       .  A
C339        H346   1.046       .  S
C340        C341   1.457       .  A
C341        C342   1.452       .  A
C341       Br348   1.925       .  S
C342        C343   1.433       .  A
C342        H347   1.070       .  S
C343        C344   1.415       .  A
C344       Br345   1.920       .  S
C349        C350   1.414       .  A
C349        C354   1.405       .  A
C349        H356   1.070       .  S
C350        C351   1.440       .  A
C351        C352   1.391       .  A
C351       Br358   1.918       .  S
C352        C353   1.391       .  A
C352        H357   1.084       .  S
C353        C354   1.411       .  A
C354       Br355   1.922       .  S
C359        C360   1.445       .  A
C359        C364   1.456       .  A
C359        H366   1.079       .  S
C360        C361   1.373       .  A
C361        C362   1.325       .  A
C361       Br368   1.755       .  S
C362        C363   1.357       .  A
C362        H367   1.066       .  S
C363        C364   1.443       .  A
C364       Br365   1.913       .  S
C369        C370   1.419       .  A
C369        C374   1.434       .  A
C369        H376   1.075       .  S
C370        C371   1.435       .  A
C371        C372   1.423       .  A
C371       Br378   1.919       .  S
C372        C373   1.425       .  A
C372        H377   1.070       .  S
C373        C374   1.435       .  A
C374       Br375   1.911       .  S
C379        C380   1.417       .  A
C379        C384   1.438       .  A
C379        H386   1.079       .  S
C380        C381   1.456       .  A
C381        C382   1.420       .  A
C381       Br388   1.918       .  S
C382        C383   1.398       .  A
C382        H387   1.062       .  S
C383        C384   1.441       .  A
C384       Br385   1.906       .  S
C389        C390   1.416       .  A
C389        C394   1.389       .  A
C389        H396   1.069       .  S
C390        C391   1.436       .  A
C391        C392   1.402       .  A
C391       Br398   1.915       .  S
C392        C393   1.396       .  A
C392        H397   1.084       .  S
C393        C394   1.402       .  A
C394       Br395   1.924       .  S
C399        C400   1.412       .  A
C399        C404   1.414       .  A
C399        H406   1.070       .  S
C400        C401   1.437       .  A
C401        C402   1.418       .  A
C401       Br408   1.921       .  S
C402        C403   1.401       .  A
C402        H407   1.082       .  S
C403        C404   1.414       .  A
C404       Br405   1.926       .  S
C409        C410   1.413       .  A
C409        C414   1.396       .  A
C409        H416   1.066       .  S
C410        C411   1.435       .  A
C411        C412   1.395       .  A
C411       Br418   1.927       .  S
C412        C413   1.401       .  A
C412        H417   1.084       .  S
C413        C414   1.396       .  A
C414       Br415   1.914       .  S
C419        C420   1.412       .  A
C419        C424   1.405       .  A
C419        H426   1.071       .  S
C420        C421   1.409       .  A
C421        C422   1.403       .  A
C421       Br428   1.916       .  S
C422        C423   1.423       .  A
C422        H427   1.067       .  S
C423        C424   1.422       .  A
C424       Br425   1.930       .  S
C429        C430   1.425       .  A
C429        C434   1.431       .  A
C429        H436   1.079       .  S
C430        C431   1.393       .  A
C431        C432   1.405       .  A
C431       Br438   1.921       .  S
C432        C433   1.431       .  A
C432        H437   1.064       .  S
C433        C434   1.432       .  A
C434       Br435   1.906       .  S
C439        C440   1.420       .  A
C439        C444   1.411       .  A
C439        H446   1.072       .  S
C440        C441   1.421       .  A
C441        C442   1.408       .  A
C441       Br448   1.918       .  S
C442        C443   1.416       .  A
C442        H447   1.071       .  S
C443        C444   1.412       .  A
C444       Br445   1.923       .  S
C449        C450   1.434       .  A
C449        C454   1.433       .  A
C449        H456   1.080       .  S
C450        C451   1.387       .  A
C451        C452   1.399       .  A
C451       Br458   1.923       .  S
C452        C453   1.436       .  A
C452        H457   1.065       .  S
C453        C454   1.431       .  A
C454       Br455   1.915       .  S
C459        C460   1.367       .  A
C459        C464   1.355       .  A
C459        H466   1.087       .  S
C460        C461   1.447       .  A
C461        C462   1.466       .  A
C461       Br468   1.915       .  S
C462        C463   1.453       .  A
C462        H467   1.078       .  S
C463        C464   1.377       .  A
C464       Br465   1.876       .  S
C469        C470   1.395       .  A
C469        C474   1.395       .  A
C469        H476   1.085       .  S
C470        C471   1.403       .  A
C471        C472   1.405       .  A
C471       Br478   1.917       .  S
C472        C473   1.419       .  A
C472        H477   1.076       .  S
C473        C474   1.436       .  A
C474       Br475   1.924       .  S
C479        C480   1.416       .  A
C479        C484   1.398       .  A
C479        H486   1.069       .  S
C480        C481   1.412       .  A
C481        C482   1.401       .  A
C481       Br488   1.920       .  S
C482        C483   1.424       .  A
C482        H487   1.067       .  S
C483        C484   1.406       .  A
C484       Br485   1.917       .  S
C489        C490   1.405       .  A
C489        C494   1.415       .  A
C489        H496   1.081       .  S
C490        C491   1.442       .  A
C491        C492   1.423       .  A
C491       Br498   1.910       .  S
C492        C493   1.412       .  A
C492        H497   1.084       .  S
C493        C494   1.419       .  A
C494       Br495   1.913       .  S
C499        C500   1.430       .  A
C499        C504   1.414       .  A
C499        H506   1.071       .  S
C500        C501   1.432       .  A
C501        C502   1.420       .  A
C501       Br508   1.929       .  S
C502        C503   1.419       .  A
C502        H507   1.073       .  S
C503        C504   1.412       .  A
C504       Br505   1.915       .  S
C509        C510   1.399       .  A
C509        C514   1.405       .  A
C509        H516   1.084       .  S
C510        C511   1.398       .  A
C511        C512   1.390       .  A
C511       Br518   1.924       .  S
C512        C513   1.408       .  A
C512        H517   1.059       .  S
C513        C514   1.437       .  A
C514       Br515   1.920       .  S
C519        C520   1.379       .  A
C519        C524   1.367       .  A
C519        H526   1.087       .  S
C520        C521   1.475       .  A
C521        C522   1.472       .  A
C521       Br528   1.927       .  S
C522        C523   1.450       .  A
C522        H527   1.076       .  S
C523        C524   1.386       .  A
C524       Br525   1.857       .  S
C529        C530   1.409       .  A
C529        C534   1.407       .  A
C529        H536   1.068       .  S
C530        C531   1.408       .  A
C531        C532   1.426       .  A
C531       Br538   1.922       .  S
C532        C533   1.415       .  A
C532        H537   1.080       .  S
C533        C534   1.410       .  A
C534       Br535   1.923       .  S
C539        C540   1.422       .  A
C539        C544   1.431       .  A
C539        H546   1.084       .  S
C540        C541   1.460       .  A
C541        C542   1.409       .  A
C541       Br548   1.935       .  S
C542        C543   1.383       .  A
C542        H547   1.071       .  S
C543        C544   1.434       .  A
C544       Br545   1.925       .  S
C549        C550   1.392       .  A
C549        C554   1.405       .  A
C549        H556   1.084       .  S
C550        C551   1.405       .  A
C551        C552   1.395       .  A
C551       Br558   1.923       .  S
C552        C553   1.412       .  A
C552        H557   1.076       .  S
C553        C554   1.443       .  A
C554       Br555   1.929       .  S
C559        C560   1.397       .  A
C559        C564   1.405       .  A
C559        H566   1.085       .  S
C560        C561   1.392       .  A
C561        C562   1.395       .  A
C561       Br568   1.903       .  S
C562        C563   1.430       .  A
C562        H567   1.073       .  S
C563        C564   1.426       .  A
C564       Br565   1.896       .  S
C569        C570   1.400       .  A
C569        C574   1.394       .  A
C569        H576   1.084       .  S
C570        C571   1.397       .  A
C571        C572   1.397       .  A
C571       Br578   1.919       .  S
C572        C573   1.411       .  A
C572        H577   1.058       .  S
C573        C574   1.437       .  A
C574       Br575   1.929       .  S
C579        C580   1.406       .  A
C579        C584   1.400       .  A
C579        H586   1.084       .  S
C580        C581   1.407       .  A
C581        C582   1.399       .  A
C581       Br588   1.923       .  S
C582        C583   1.419       .  A
C582        H587   1.079       .  S
C583        C584   1.423       .  A
C584       Br585   1.922       .  S
C589        C590   1.390       .  A
C589        C594   1.395       .  A
C589        H596   1.083       .  S
C590        C591   1.418       .  A
C591        C592   1.412       .  A
C591       Br598   1.910       .  S
C592        C593   1.412       .  A
C592        H597   1.081       .  S
C593        C594   1.435       .  A
C594       Br595   1.920       .  S
C599        C600   1.421       .  A
C599        C604   1.396       .  A
C599        H606   1.076       .  S
C600        C601   1.431       .  A
C601        C602   1.419       .  A
C601       Br608   1.910       .  S
C602        C603   1.408       .  A
C602        H607   1.083       .  S
C603        C604   1.410       .  A
C604       Br605   1.915       .  S
C609        C610   1.442       .  A
C609        C614   1.423       .  A
C609        H616   1.076       .  S
C610        C611   1.412       .  A
C611        C612   1.433       .  A
C611       Br618   1.920       .  S
C612        C613   1.453       .  A
C612        H617   1.062       .  S
C613        C614   1.417       .  A
C614       Br615   1.919       .  S
C619        C620   1.391       .  A
C619        C624   1.397       .  A
C619        H626   1.086       .  S
C620        C621   1.393       .  A
C621        C622   1.405       .  A
C621       Br628   1.918       .  S
C622        C623   1.434       .  A
C622        H627   1.074       .  S
C623        C624   1.434       .  A
C624       Br625   1.905       .  S
C629        C630   1.422       .  A
C629        C634   1.431       .  A
C629        H636   1.072       .  S
C630        C631   1.441       .  A
C631        C632   1.428       .  A
C631       Br638   1.927       .  S
C632        C633   1.417       .  A
C632        H637   1.072       .  S
C633        C634   1.423       .  A
C634       Br635   1.925       .  S
C639        C640   1.413       .  A
C639        C644   1.431       .  A
C639        H646   1.081       .  S
C640        C641   1.449       .  A
C641        C642   1.426       .  A
C641       Br648   1.910       .  S
C642        C643   1.411       .  A
C642        H647   1.067       .  S
C643        C644   1.436       .  A
C644       Br645   1.917       .  S
C649        C650   1.431       .  A
C649        C654   1.408       .  A
C649        H656   1.075       .  S
C650        C651   1.432       .  A
C651        C652   1.401       .  A
C651       Br658   1.880       .  S
C652        C653   1.390       .  A
C652        H657   1.085       .  S
C653        C654   1.408       .  A
C654       Br655   1.922       .  S
C659        C660   1.434       .  A
C659        C664   1.462       .  A
C659        H666   1.081       .  S
C660        C661   1.380       .  A
C661        C662   1.302       .  A
C661       Br668   1.805       .  S
C662        C663   1.354       .  A
C662        H667   1.066       .  S
C663        C664   1.448       .  A
C664       Br665   1.913       .  S
C669        C670   1.436       .  A
C669        C674   1.423       .  A
C669        H676   1.061       .  S
C670        C671   1.438       .  A
C671        C672   1.433       .  A
C671       Br678   1.913       .  S
C672        C673   1.431       .  A
C672        H677   1.080       .  S
C673        C674   1.405       .  A
C674       Br675   1.918       .  S
C679        C680   1.418       .  A
C679        C684   1.426       .  A
C679        H686   1.073       .  S
C680        C681   1.420       .  A
C681        C682   1.422       .  A
C681       Br688   1.916       .  S
C682        C683   1.439       .  A
C682        H687   1.061       .  S
C683        C684   1.437       .  A
C684       Br685   1.927       .  S
C689        C690   1.399       .  A
C689        C694   1.389       .  A
C689        H696   1.083       .  S
C690        C691   1.401       .  A
C691        C692   1.406       .  A
C691       Br698   1.918       .  S
C692        C693   1.424       .  A
C692        H697   1.070       .  S
C693        C694   1.439       .  A
C694       Br695   1.933       .  S
C699        C700   1.398       .  A
C699        C704   1.408       .  A
C699        H706   1.084       .  S
C700        C701   1.409       .  A
C701        C702   1.397       .  A
C701       Br708   1.920       .  S
C702        C703   1.420       .  A
C702        H707   1.071       .  S
C703        C704   1.436       .  A
C704       Br705   1.907       .  S
C709        C710   1.393       .  A
C709        C714   1.409       .  A
C709        H716   1.084       .  S
C710        C711   1.404       .  A
C711        C712   1.393       .  A
C711       Br718   1.923       .  S
C712        C713   1.410       .  A
C712        H717   1.072       .  S
C713        C714   1.448       .  A
C714       Br715   1.932       .  S
C719        C720   1.412       .  A
C719        C724   1.396       .  A
C719        H726   1.076       .  S
C720        C721   1.433       .  A
C721        C722   1.404       .  A
C721       Br728   1.924       .  S
C722        C723   1.401       .  A
C722        H727   1.084       .  S
C723        C724   1.408       .  A
C724       Br725   1.923       .  S
C729        C730   1.413       .  A
C729        C734   1.403       .  A
C729        H736   1.071       .  S
C730        C731   1.438       .  A
C731        C732   1.403       .  A
C731       Br738   1.906       .  S
C732        C733   1.389       .  A
C732        H737   1.085       .  S
C733        C734   1.416       .  A
C734       Br735   1.926       .  S
C739        C740   1.395       .  A
C739        C744   1.400       .  A
C739        H746   1.085       .  S
C740        C741   1.400       .  A
C741        C742   1.403       .  A
C741       Br748   1.918       .  S
C742        C743   1.418       .  A
C742        H747   1.080       .  S
C743        C744   1.433       .  A
C744       Br745   1.924       .  S
C749        C750   1.418       .  A
C749        C754   1.390       .  A
C749        H756   1.076       .  S
C750        C751   1.420       .  A
C751        C752   1.399       .  A
C751       Br758   1.920       .  S
C752        C753   1.404       .  A
C752        H757   1.084       .  S
C753        C754   1.400       .  A
C754       Br755   1.912       .  S
C759        C760   1.409       .  A
C759        C764   1.424       .  A
C759        H766   1.062       .  S
C760        C761   1.432       .  A
C761        C762   1.418       .  A
C761       Br768   1.926       .  S
C762        C763   1.407       .  A
C762        H767   1.073       .  S
C763        C764   1.435       .  A
C764       Br765   1.906       .  S
C769        C770   1.406       .  A
C769        C774   1.387       .  A
C769        H776   1.066       .  S
C770        C771   1.430       .  A
C771        C772   1.404       .  A
C771       Br778   1.925       .  S
C772        C773   1.405       .  A
C772        H777   1.084       .  S
C773        C774   1.408       .  A
C774       Br775   1.926       .  S
C779        C780   1.418       .  A
C779        C784   1.391       .  A
C779        H786   1.068       .  S
C780        C781   1.417       .  A
C781        C782   1.413       .  A
C781       Br788   1.916       .  S
C782        C783   1.418       .  A
C782        H787   1.072       .  S
C783        C784   1.417       .  A
C784       Br785   1.932       .  S
C789        C790   1.420       .  A
C789        C794   1.423       .  A
C789        H796   1.080       .  S
C790        C791   1.397       .  A
C791        C792   1.404       .  A
C791       Br798   1.917       .  S
C792        C793   1.425       .  A
C792        H797   1.065       .  S
C793        C794   1.422       .  A
C794       Br795   1.925       .  S
C799        C800   1.391       .  A
C799        C804   1.398       .  A
C799        H806   1.084       .  S
C800        C801   1.409       .  A
C801        C802   1.388       .  A
C801       Br808   1.924       .  S
C802        C803   1.414       .  A
C802        H807   1.076       .  S
C803        C804   1.438       .  A
C804       Br805   1.917       .  S
C809        C810   1.366       .  A
C809        C814   1.356       .  A
C809        H816   1.087       .  S
C810        C811   1.452       .  A
C811        C812   1.466       .  A
C811       Br818   1.916       .  S
C812        C813   1.450       .  A
C812        H817   1.082       .  S
C813        C814   1.378       .  A
C814       Br815   1.885       .  S
C819        C820   1.424       .  A
C819        C824   1.409       .  A
C819        H826   1.066       .  S
C820        C821   1.443       .  A
C821        C822   1.427       .  A
C821       Br828   1.929       .  S
C822        C823   1.431       .  A
C822        H827   1.077       .  S
C823        C824   1.399       .  A
C824       Br825   1.920       .  S
C829        C830   1.416       .  A
C829        C834   1.401       .  A
C829        H836   1.079       .  S
C830        C831   1.415       .  A
C831        C832   1.405       .  A
C831       Br838   1.916       .  S
C832        C833   1.414       .  A
C832        H837   1.076       .  S
C833        C834   1.417       .  A
C834       Br835   1.916       .  S
C839        C840   1.399       .  A
C839        C844   1.403       .  A
C839        H846   1.084       .  S
C840        C841   1.411       .  A
C841        C842   1.394       .  A
C841       Br848   1.926       .  S
C842        C843   1.409       .  A
C842        H847   1.073       .  S
C843        C844   1.435       .  A
C844       Br845   1.924       .  S
C849        C850   1.419       .  A
C849        C854   1.392       .  A
C849        H856   1.069       .  S
C850        C851   1.431       .  A
C851        C852   1.400       .  A
C851       Br858   1.913       .  S
C852        C853   1.391       .  A
C852        H857   1.084       .  S
C853        C854   1.394       .  A
C854       Br855   1.919       .  S
C859        C860   1.451       .  A
C859        C864   1.454       .  A
C859        H866   1.073       .  S
C860        C861   1.373       .  A
C861        C862   1.365       .  A
C861       Br868   1.853       .  S
C862        C863   1.375       .  A
C862        H867   1.086       .  S
C863        C864   1.457       .  A
C864       Br865   1.916       .  S
C869        C870   1.419       .  A
C869        C874   1.401       .  A
C869        H876   1.075       .  S
C870        C871   1.431       .  A
C871        C872   1.394       .  A
C871       Br878   1.931       .  S
C872        C873   1.405       .  A
C872        H877   1.084       .  S
C873        C874   1.404       .  A
C874       Br875   1.920       .  S
C879        C880   1.430       .  A
C879        C884   1.426       .  A
C879        H886   1.068       .  S
C880        C881   1.404       .  A
C881        C882   1.408       .  A
C881       Br888   1.920       .  S
C882        C883   1.421       .  A
C882        H887   1.071       .  S
C883        C884   1.430       .  A
C884       Br885   1.918       .  S
C889        C890   1.412       .  A
C889        C894   1.419       .  A
C889        H896   1.076       .  S
C890        C891   1.412       .  A
C891        C892   1.415       .  A
C891       Br898   1.920       .  S
C892        C893   1.414       .  A
C892        H897   1.076       .  S
C893        C894   1.433       .  A
C894       Br895   1.914       .  S
C899        C900   1.414       .  A
C899        C904   1.392       .  A
C899        H906   1.077       .  S
C900        C901   1.433       .  A
C901        C902   1.399       .  A
C901       Br908   1.923       .  S
C902        C903   1.398       .  A
C902        H907   1.084       .  S
C903        C904   1.406       .  A
C904       Br905   1.924       .  S
C909        C910   1.420       .  A
C909        C914   1.405       .  A
C909        H916   1.068       .  S
C910        C911   1.418       .  A
C911        C912   1.410       .  A
C911       Br918   1.918       .  S
C912        C913   1.422       .  A
C912        H917   1.067       .  S
C913        C914   1.422       .  A
C914       Br915   1.922       .  S
C919        C920   1.423       .  A
C919        C924   1.406       .  A
C919        H926   1.071       .  S
C920        C921   1.412       .  A
C921        C922   1.412       .  A
C921       Br928   1.923       .  S
C922        C923   1.413       .  A
C922        H927   1.077       .  S
C923        C924   1.407       .  A
C924       Br925   1.919       .  S
C929        C930   1.423       .  A
C929        C934   1.415       .  A
C929        H936   1.073       .  S
C930        C931   1.412       .  A
C931        C932   1.418       .  A
C931       Br938   1.918       .  S
C932        C933   1.421       .  A
C932        H937   1.076       .  S
C933        C934   1.407       .  A
C934       Br935   1.920       .  S
C939        C940   1.396       .  A
C939        C944   1.407       .  A
C939        H946   1.084       .  S
C940        C941   1.399       .  A
C941        C942   1.393       .  A
C941       Br948   1.920       .  S
C942        C943   1.414       .  A
C942        H947   1.074       .  S
C943        C944   1.438       .  A
C944       Br945   1.923       .  S
