geometry optimzed in LAMMPS
_audit_creation_date              2020-11-30 
_audit_creation_method            'lammps2cif' 
_symmetry_space_group_name_H-M    'P1' 
_symmetry_Int_Tables_number       1 
_symmetry_cell_setting            triclinic 
loop_ 
_symmetry_equiv_pos_as_xyz 
  x,y,z 
_cell_length_a                    33.79048068 
_cell_length_b                    35.61082536454101 
_cell_length_c                    33.83475038270377 
_cell_angle_alpha                 89.34517187640469 
_cell_angle_beta                  87.33425732939334 
_cell_angle_gamma                 93.50036017381642 
loop_ 
_atom_site_label 
_atom_site_type_symbol 
_atom_site_fract_x 
_atom_site_fract_y 
_atom_site_fract_z 
_atom_site_charge 
C1          C  0.59340351  0.59655570  0.60654664    -0.02300
C2          C  0.96100554  0.08338780  0.61064210    -0.02300
C3          C  0.10430023  0.59743145  0.94295515    -0.02300
C4          C  0.42951187  0.38948205  0.46486733    -0.02300
C5          C  0.60402606  0.90486856  0.09625671    -0.02300
C6          C  0.92375847  0.40245610  0.11121143    -0.02300
C7          C  0.46024413  0.10312137  0.93665857    -0.02300
C8          C  0.11556394  0.89769686  0.43658137    -0.02300
Zr9        Zr  0.97557670  0.04297479  0.00085641     2.17500
O10         O  0.92051443  0.06326828  0.96331844    -0.51200
O11         O  0.97003509  0.10729269  0.02584651    -0.74400
O12         O  0.90951468  0.02120592  0.02988991    -0.81200
O13         O  0.04751685  0.05394301  0.90880057    -0.82900
O14         O  0.91776038  0.98226345  0.08231306    -0.78500
O15         O  0.98401858  0.06094759  0.93039164    -0.90200
O16         O  0.02168759  0.12198741  0.06413498    -0.76100
O17         O  0.99344001  0.04238055  0.06833320    -0.85600
O18         O  0.04236385  0.06919379  0.00117957    -0.85300
O19         O  0.97059617  0.97721366  0.02028981    -0.72100
O20         O  0.01540863  0.00316848  0.96024045    -0.84200
Zr21       Zr  0.09435771  0.96204354  0.04988247     2.26400
Zr22       Zr  0.98886769  0.97728901  0.08821618     2.06300
Zr23       Zr  0.08233223  0.02859077  0.96255903     2.10000
Zr24       Zr  0.06051668  0.06749213  0.06816510     1.78800
O25         O  0.10716591  0.00207479  0.90083864    -0.93000
O26         O  0.04178743  0.08184260  0.13650229    -0.40800
O27         O  0.10102829  0.02729525  0.02966048    -0.77500
O28         O  0.05595364  0.00344998  0.09040688    -0.96100
O29         O  0.02767968  0.93642687  0.04839482    -0.89400
O30         O  0.07781531  0.96357302  0.98218560    -0.92300
C31         C  0.98985574  0.13024055  0.04775492     1.01500
C32         C  0.01217034  0.06310417  0.90320695     1.14400
C33         C  0.89593049  0.99886578  0.05827836     1.05200
O34         O  0.96662332  0.01048017  0.14687484    -0.94400
O35         O  0.02172711  0.94750852  0.14165824    -0.90200
O36         O  0.08553935  0.94153794  0.11935121    -0.83300
C37         C  0.05739017  0.93832595  0.14633579     1.11800
O38         O  0.95956577  0.93449518  0.93252431    -0.96400
Zr39       Zr  0.01101929  0.93851405  0.98078952     1.88900
O40         O  0.09685145  0.89650397  0.02784630    -0.73100
O41         O  0.95861903  0.91737260  0.11336700    -0.52300
O42         O  0.95666875  0.89266460  0.99961341    -0.97000
O43         O  0.03643001  0.92095095  0.91533636    -0.54200
O44         O  0.04227184  0.88083893  0.99345512    -0.73600
C45         C  0.07400791  0.87270378  0.00994941     0.98800
O46         O  0.15538399  0.94309524  0.07819072    -0.62400
O47         O  0.11471077  0.09055043  0.94781163    -0.57200
O48         O  0.15994599  0.98496126  0.02244813    -0.93900
O49         O  0.15248260  0.02000781  0.96692470    -0.92300
O50         O  0.10934733  0.11722155  0.04552066    -0.92700
O51         O  0.11642146  0.07644023  0.11073448    -0.91400
C52         C  0.17375991  0.00423470  0.99191621     1.17600
H53         H  0.04438579  0.09444718  0.99023829     0.33600
H54         H  0.06462488  0.00496724  0.11712472     0.44400
H55         H  0.09583059  0.94939539  0.96615187     0.37900
H56         H  0.94461957  0.96548626  0.01677362     0.34400
H57         H  0.05121221  0.10846606  0.13974575     0.26200
H58         H  0.93360985  0.92345389  0.12760028     0.32100
H59         H  0.96593729  0.87874329  0.02255656     0.38000
H60         H  0.09799467  0.12893789  0.02228794     0.32500
H61         H  0.13775260  0.09249814  0.96486280     0.31400
H62         H  0.12930231  0.01984296  0.89122184     0.33100
H63         H  0.06259024  0.91080195  0.91936244     0.32000
H64         H  0.13559268  0.05830544  0.10103975     0.36000
H65         H  0.15899799  0.95868238  0.10196575     0.28800
H66         H  0.90334322  0.07664818  0.98225527     0.33000
H67         H  0.95817751  0.90808101  0.92358064     0.35800
H68         H  0.12651805  0.08861056  0.92063704     0.28500
H69         H  0.14949844  0.91709709  0.08845759     0.41300
H70         H  0.94775864  0.99217958  0.16124373     0.31400
H71         H  0.01250447  0.08235139  0.13722698     0.39000
H72         H  0.04265080  0.94518405  0.90108498     0.30900
H73         H  0.95035428  0.90350958  0.08967454     0.30900
H74         H  0.90471313  0.03999250  0.95684246     0.31200
Zr75       Zr  0.56859408  0.06017365  0.55409258     2.17500
O76         O  0.61081460  0.11795581  0.54465929    -0.51200
O77         O  0.55557146  0.06876699  0.62483364    -0.74400
O78         O  0.53074942  0.11587436  0.54652236    -0.81200
O79         O  0.65983401  0.00334157  0.55932487    -0.82900
O80         O  0.47491779  0.09956302  0.51453217    -0.78500
O81         O  0.63858328  0.06209624  0.56937239    -0.90200
O82         O  0.51912556  0.01666477  0.64802329    -0.76100
O83         O  0.50153278  0.03605781  0.56567329    -0.85600
O84         O  0.57182700  0.99918827  0.58319661    -0.85300
O85         O  0.54023104  0.05837213  0.49023843    -0.72100
O86         O  0.60492960  0.02388400  0.50718922    -0.84200
Zr87       Zr  0.51026765  0.93585286  0.48273920     2.26400
Zr88       Zr  0.47351045  0.03275797  0.50197824     2.06300
Zr89       Zr  0.60605898  0.96231735  0.53576366     2.10000
Zr90       Zr  0.50512212  0.97504557  0.59403939     1.78800
O91         O  0.66195304  0.94470268  0.49331750    -0.93000
O92         O  0.44021719  0.98758418  0.62359139    -0.40800
O93         O  0.53892291  0.93817709  0.54654830    -0.77500
O94         O  0.47467721  0.97138078  0.53170955    -0.96100
O95         O  0.50829904  0.99692345  0.45383328    -0.89400
O96         O  0.57793198  0.95912824  0.47203352    -0.92300
C97         C  0.53764943  0.04862930  0.65273342     1.01500
C98         C  0.66529357  0.03788891  0.56919239     1.14400
C99         C  0.49836396  0.12384394  0.53067903     1.05200
O100        O  0.41181071  0.04989446  0.53508888    -0.94400
O101        O  0.41725323  0.99359875  0.48158316    -0.90200
O102        O  0.43840446  0.93492209  0.47145109    -0.83300
C103        C  0.41115741  0.95875686  0.47321460     1.11800
O104        O  0.60693801  0.08253339  0.42582686    -0.96400
Zr105      Zr  0.57562130  0.02087201  0.44440812     1.88900
O106        O  0.52878414  0.92800044  0.41228346    -0.73100
O107        O  0.45668686  0.05972150  0.43894129    -0.52300
O108        O  0.54759636  0.05195324  0.38852864    -0.97000
O109        O  0.64563422  0.01395850  0.42703979    -0.54200
O110        O  0.57002837  0.97741178  0.39118577    -0.73600
C111        C  0.55130726  0.94582940  0.38565998     0.98800
O112        O  0.48094942  0.87288064  0.47077953    -0.62400
O113        O  0.63455331  0.93325143  0.59265551    -0.57200
O114        O  0.53850080  0.87891351  0.50719511    -0.93900
O115        O  0.59578836  0.89437628  0.53761823    -0.92300
O116        O  0.53617638  0.93584372  0.64167562    -0.92700
O117        O  0.46414523  0.91804971  0.61133513    -0.91400
C118        C  0.56889802  0.87047053  0.52618877     1.17600
H119        H  0.58568050  0.00039950  0.60752544     0.33600
H120        H  0.44834683  0.96023181  0.53796891     0.44400
H121        H  0.59266428  0.94275058  0.45509670     0.37900
H122        H  0.54059082  0.08334297  0.47875803     0.34400
H123        H  0.44232584  0.98258382  0.65224794     0.26200
H124        H  0.43329497  0.07432671  0.44544878     0.32100
H125        H  0.52309020  0.03654035  0.38318845     0.38000
H126        H  0.52096247  0.93916831  0.66698676     0.32500
H127        H  0.66367057  0.93565579  0.58737403     0.31400
H128        H  0.68580150  0.95622320  0.50543614     0.33100
H129        H  0.64889093  0.02007793  0.39843665     0.32000
H130        H  0.47353088  0.89901654  0.59256218     0.36000
H131        H  0.45930997  0.86838762  0.49136829     0.28800
H132        H  0.60129655  0.13568916  0.56478872     0.33000
H133        H  0.61927346  0.07986390  0.39896147     0.35800
H134        H  0.62948092  0.95005777  0.61517585     0.28500
H135        H  0.46743208  0.87464595  0.44553657     0.41300
H136        H  0.41883430  0.05552159  0.56256617     0.31400
H137        H  0.43887629  0.01521952  0.62146107     0.39000
H138        H  0.64893226  0.98657928  0.42863422     0.30900
H139        H  0.47840421  0.07901337  0.43234826     0.30900
H140        H  0.60385326  0.12864259  0.51891693     0.31200
Zr141      Zr  0.49342668  0.55892611  0.99248026     2.17500
O142        O  0.46182855  0.61269621  0.96515218    -0.51200
O143        O  0.51808791  0.56440208  0.92323636    -0.74400
O144        O  0.52930543  0.61841668  0.00827199    -0.81200
O145        O  0.39413400  0.49788271  0.99232794    -0.82900
O146        O  0.58450397  0.60543394  0.04065194    -0.78500
O147        O  0.42117844  0.55776807  0.98518181    -0.90200
O148        O  0.55495684  0.51517404  0.90836405    -0.76100
O149        O  0.55877725  0.53695665  0.98962395    -0.85600
O150        O  0.48771724  0.49653640  0.96754196    -0.85300
O151        O  0.51471021  0.56145333  0.05973119    -0.72100
O152        O  0.45019103  0.52310198  0.03896364    -0.84200
Zr153      Zr  0.53310568  0.44066437  0.07949136     2.26400
Zr154      Zr  0.58016139  0.53842781  0.05624087     2.06300
Zr155      Zr  0.44609489  0.46031349  0.01483169     2.10000
Zr156      Zr  0.55269016  0.47427585  0.96578158     1.78800
O157        O  0.38368815  0.43730371  0.04804324    -0.93000
O158        O  0.62245940  0.48506077  0.94435129    -0.40800
O159        O  0.51119422  0.43772995  0.01274392    -0.77500
O160        O  0.57612308  0.47567589  0.03122386    -0.96100
O161        O  0.53782881  0.50322258  0.10397971    -0.89400
O162        O  0.46717041  0.46142990  0.08148770    -0.92300
C163        C  0.54039394  0.54627245  0.89935187     1.01500
C164        C  0.39162892  0.53306643  0.98514254     1.14400
C165        C  0.56180276  0.62839568  0.02475748     1.05200
O166        O  0.64447838  0.55621130  0.02370562    -0.94400
O167        O  0.63042570  0.50091539  0.08410465    -0.90200
O168        O  0.60401020  0.44128128  0.09422093    -0.83300
C169        C  0.63342848  0.46615275  0.09377930     1.11800
O170        O  0.43812028  0.58227808  0.11411347    -0.96400
Zr171      Zr  0.47200957  0.52421697  0.10496951     1.88900
O172        O  0.50570890  0.43417700  0.14799527    -0.73100
O173        O  0.59741190  0.56957014  0.11733162    -0.52300
O174        O  0.49747583  0.56309769  0.15809315    -0.97000
O175        O  0.40084085  0.51215679  0.11884877    -0.54200
O176        O  0.46924070  0.48391324  0.16260607    -0.73600
C177        C  0.48313333  0.45249401  0.17147798     0.98800
O178        O  0.55940826  0.38431394  0.10725133    -0.62400
O179        O  0.42746774  0.43505595  0.95123534    -0.57200
O180        O  0.50168969  0.38172163  0.05626181    -0.93900
O181        O  0.44685424  0.39289031  0.02325625    -0.92300
O182        O  0.52484960  0.43457879  0.91448389    -0.92700
O183        O  0.58324985  0.41428044  0.95906908    -0.91400
C184        C  0.47078652  0.37051060  0.03780868     1.17600
H185        H  0.47648752  0.49638901  0.94181005     0.33600
H186        H  0.60183044  0.46555669  0.02785655     0.44400
H187        H  0.44932872  0.44509180  0.09801403     0.37900
H188        H  0.51476504  0.58637547  0.07060267     0.34400
H189        H  0.62573111  0.46991574  0.92018667     0.26200
H190        H  0.62150210  0.58584471  0.10997767     0.32100
H191        H  0.51742893  0.54806654  0.17041812     0.38000
H192        H  0.50572486  0.44993720  0.90132292     0.32500
H193        H  0.44552840  0.41463658  0.94597830     0.31400
H194        H  0.36933536  0.42307007  0.02758363     0.33100
H195        H  0.38845388  0.51868994  0.09392816     0.32000
H196        H  0.58127725  0.40312638  0.98609072     0.36000
H197        H  0.53642884  0.36919244  0.11958830     0.28800
H198        H  0.48205941  0.62555225  0.94674332     0.33000
H199        H  0.42518697  0.58032691  0.14099755     0.35800
H200        H  0.40105028  0.42194752  0.95659248     0.28500
H201        H  0.56851063  0.36949170  0.08434184     0.41300
H202        H  0.64023496  0.55348100  0.99509856     0.31400
H203        H  0.63759046  0.47227816  0.96434461     0.39000
H204        H  0.39661318  0.48446268  0.12106699     0.30900
H205        H  0.57636594  0.58733964  0.12226396     0.30900
H206        H  0.45855455  0.63034850  0.98729627     0.31200
Zr207      Zr  0.04156261  0.44188322  0.48364396     2.17500
O208        O  0.07487153  0.41145394  0.42813922    -0.51200
O209        O  0.02511920  0.37653663  0.50548836    -0.74400
O210        O  0.11141917  0.43119413  0.49405711    -0.81200
O211        O  0.95711732  0.46809688  0.41693489    -0.82900
O212        O  0.12910161  0.45948392  0.55070245    -0.78500
O213        O  0.01318016  0.43587652  0.41839637    -0.90200
O214        O  0.98193412  0.37620370  0.55881441    -0.76100
O215        O  0.03799007  0.43926374  0.55408539    -0.85600
O216        O  0.97296601  0.44162007  0.50361455    -0.85300
O217        O  0.07851431  0.49803596  0.50364580    -0.72100
O218        O  0.01796103  0.49941996  0.45819145    -0.84200
Zr219      Zr  0.98327705  0.55322528  0.57206508     2.26400
Zr220      Zr  0.07406550  0.49501693  0.57470055     2.06300
Zr221      Zr  0.94965632  0.49967511  0.47995446     2.10000
Zr222      Zr  0.96952415  0.44025723  0.57390571     1.78800
O223        O  0.93236393  0.54350161  0.42871787    -0.93000
O224        O  0.98903949  0.41227598  0.63555622    -0.40800
O225        O  0.94622035  0.49793516  0.55057642    -0.77500
O226        O  0.00552862  0.49475465  0.59698697    -0.96100
O227        O  0.05147501  0.55312377  0.55075084    -0.89400
O228        O  0.98505920  0.55582669  0.50127145    -0.92300
C229        C  0.00329642  0.35950015  0.53314413     1.01500
C230        C  0.98272784  0.44694519  0.40104246     1.14400
C231        C  0.13681697  0.43961716  0.52025604     1.05200
O232        O  0.08839725  0.45152690  0.62742664    -0.94400
O233        O  0.06875828  0.52666609  0.63767508    -0.90200
O234        O  0.01313974  0.55966109  0.63710944    -0.83300
C235        C  0.04351324  0.54781048  0.65405990     1.11800
O236        O  0.09196843  0.54882324  0.41824308    -0.96400
Zr237      Zr  0.05326294  0.55493345  0.48026499     1.88900
O238        O  0.00564169  0.61874127  0.55534990    -0.73100
O239        O  0.13399499  0.53607415  0.57962444    -0.52300
O240        O  0.12276181  0.57741362  0.48167583    -0.97000
O241        O  0.02633187  0.59100828  0.42711182    -0.54200
O242        O  0.05414200  0.61726528  0.50676992    -0.73600
C243        C  0.03354014  0.63453259  0.53259573     0.98800
O244        O  0.94189159  0.58562682  0.62011587    -0.62400
O245        O  0.88960048  0.45905926  0.47368567    -0.57200
O246        O  0.91162935  0.55807208  0.56564635    -0.93900
O247        O  0.89306171  0.53022098  0.50882535    -0.92300
O248        O  0.90467974  0.41103470  0.56015429    -0.92700
O249        O  0.92085788  0.44726836  0.62829507    -0.91400
C250        C  0.88534644  0.54802308  0.54078144     1.17600
H251        H  0.95864399  0.41999151  0.49305558     0.33600
H252        H  0.00225253  0.49259728  0.62540503     0.44400
H253        H  0.97307366  0.57806644  0.49208911     0.37900
H254        H  0.10572941  0.49907540  0.49353317     0.34400
H255        H  0.97204777  0.38869131  0.63891748     0.26200
H256        H  0.14802379  0.52533442  0.60175121     0.32100
H257        H  0.12714999  0.58245001  0.50988805     0.38000
H258        H  0.88765268  0.43236650  0.55660620     0.32500
H259        H  0.87941045  0.46617183  0.44785876     0.31400
H260        H  0.90361442  0.53797704  0.42561151     0.33100
H261        H  0.01173637  0.61106191  0.44022551     0.32000
H262        H  0.91666485  0.47454558  0.62867440     0.36000
H263        H  0.93759976  0.56827088  0.64321483     0.28800
H264        H  0.08668070  0.38912932  0.43935052     0.33000
H265        H  0.09919206  0.57484253  0.40866704     0.35800
H266        H  0.89831207  0.43329488  0.46988063     0.28500
H267        H  0.95885342  0.60706647  0.62947381     0.41300
H268        H  0.11290178  0.46261264  0.63870919     0.31400
H269        H  0.01598293  0.40379813  0.62944517     0.39000
H270        H  0.00550860  0.57387761  0.41625951     0.30900
H271        H  0.15075898  0.53109148  0.55570279     0.30900
H272        H  0.09773322  0.42884794  0.41956273     0.31200
C273        C  0.22416978  0.94535148  0.42857182    -0.22300
C274        C  0.24624147  0.91800734  0.44541961     0.09700
C275        C  0.22689330  0.88406636  0.45920737     0.10100
C276        C  0.18564989  0.87831858  0.45639887    -0.17200
C277        C  0.16184634  0.90598951  0.44054228    -0.27600
C278        C  0.18277205  0.94025882  0.42584605     0.18400
C279        C  0.28898488  0.92691684  0.45178417     0.12400
C280        C  0.25000528  0.85358769  0.47681145    -0.12000
H281        H  0.17303207  0.85090307  0.46538345     0.12600
C282        C  0.16340008  0.97314914  0.40783987    -0.22800
H283        H  0.23942967  0.97156949  0.41822019     0.08300
C284        C  0.31938899  0.91848654  0.42380933     0.04600
C285        C  0.35937265  0.92760144  0.43205548    -0.20100
C286        C  0.36936465  0.94544860  0.46741347    -0.12300
C287        C  0.33860826  0.95287147  0.49576311     0.13300
C288        C  0.29898630  0.94388664  0.48730791    -0.22800
C289        C  0.30947398  0.90066464  0.38507368    -0.05800
H290        H  0.38276698  0.92192037  0.41033659     0.14900
C291        C  0.34617784  0.96931461  0.53581991    -0.16000
H292        H  0.27554418  0.94982567  0.50892084     0.09200
H293        H  0.17336463  0.97651379  0.37618972     0.07000
H294        H  0.17236955  0.99928821  0.42359288     0.08200
H295        H  0.13081171  0.97092395  0.40989043     0.07300
H296        H  0.26520328  0.86439247  0.50314816     0.02200
H297        H  0.27253936  0.84442625  0.45465700     0.02700
H298        H  0.23053908  0.82852616  0.48624361     0.06100
H299        H  0.33661868  0.89603577  0.36642918     0.05100
H300        H  0.29073385  0.91924397  0.36839900    -0.00600
H301        H  0.29300050  0.87304047  0.39051149     0.00800
H302        H  0.33325295  0.99718477  0.53803983     0.04500
H303        H  0.37800313  0.97270472  0.54210354     0.06400
H304        H  0.33177542  0.95034353  0.55925383     0.07300
C305        C  0.09271413  0.72756972  0.52334861    -0.22300
C306        C  0.06309046  0.75157593  0.51407344     0.09700
C307        C  0.02279672  0.73845969  0.51887597     0.10100
C308        C  0.01320572  0.70040644  0.52899233    -0.17200
C309        C  0.04315827  0.67554123  0.53474404    -0.27600
C310        C  0.08320326  0.68996874  0.53449615     0.18400
C311        C  0.07519509  0.78849195  0.49484825     0.12400
C312        C  0.99011468  0.76448359  0.51248886    -0.12000
H313        H  0.98249672  0.68956503  0.52979205     0.12600
C314        C  0.11666557  0.66621548  0.54525144    -0.22800
H315        H  0.12360465  0.73786013  0.52051043     0.08300
C316        C  0.09146981  0.81896296  0.51571054     0.04600
C317        C  0.10408972  0.85232704  0.49518060    -0.20100
C318        C  0.10140790  0.85707000  0.45349731    -0.12300
C319        C  0.08338152  0.82539084  0.43283570     0.13300
C320        C  0.07153224  0.79204471  0.45415565    -0.22800
C321        C  0.09506900  0.81642682  0.55984893    -0.05800
H322        H  0.11690010  0.87526714  0.51210918     0.14900
C323        C  0.07444539  0.82385972  0.38927792    -0.16000
H324        H  0.05907336  0.76781148  0.43882300     0.09200
H325        H  0.13330882  0.68006105  0.56919656     0.07000
H326        H  0.13720295  0.66331906  0.51903407     0.08200
H327        H  0.10610665  0.63777439  0.55638013     0.07300
H328        H  0.99222610  0.77568806  0.48168364     0.02200
H329        H  0.99273248  0.78830098  0.53330270     0.02700
H330        H  0.96031946  0.74986510  0.51773031     0.06100
H331        H  0.10726929  0.84331056  0.57204045     0.05100
H332        H  0.11515547  0.79410746  0.56719948    -0.00600
H333        H  0.06534400  0.80960059  0.57444852     0.00800
H334        H  0.05421628  0.79917576  0.38273521     0.04500
H335        H  0.10155387  0.81976104  0.37085083     0.06400
H336        H  0.05870004  0.84811360  0.37898424     0.07300
C337        C  0.12332029  0.89088188  0.32034612    -0.22300
C338        C  0.09199901  0.91184341  0.30940617     0.09700
C339        C  0.06964354  0.92988261  0.33862266     0.10100
C340        C  0.07856065  0.92590075  0.37843732    -0.17200
C341        C  0.10856122  0.90280904  0.39110541    -0.27600
C342        C  0.13265223  0.88650235  0.36017950     0.18400
C343        C  0.08483893  0.91672223  0.26679168     0.12400
C344        C  0.03654490  0.95397915  0.32764384    -0.12000
H345        H  0.06179165  0.94196794  0.39917242     0.12600
C346        C  0.16818239  0.86378174  0.36733153    -0.22800
H347        H  0.14108182  0.87823974  0.29715212     0.08300
C348        C  0.10759724  0.94376811  0.24327179     0.04600
C349        C  0.09920589  0.94839155  0.20337260    -0.20100
C350        C  0.06790802  0.92730002  0.18661478    -0.12300
C351        C  0.04558046  0.89959361  0.21003430     0.13300
C352        C  0.05439008  0.89466784  0.24990780    -0.22800
C353        C  0.13969874  0.96876365  0.26071976    -0.05800
H354        H  0.11601449  0.96990422  0.18559165     0.14900
C355        C  0.01298565  0.87431642  0.19384406    -0.16000
H356        H  0.03720896  0.87368574  0.26806121     0.09200
H357        H  0.19415551  0.88262932  0.37423181     0.07000
H358        H  0.17749355  0.84810750  0.34062314     0.08200
H359        H  0.16149939  0.84251435  0.39120696     0.07300
H360        H  0.01360134  0.93665144  0.31244241     0.02200
H361        H  0.04846900  0.97726818  0.30756620     0.02700
H362        H  0.02197060  0.96651853  0.35402401     0.06100
H363        H  0.15431890  0.98875217  0.23834874     0.05100
H364        H  0.16276432  0.95139355  0.27251464    -0.00600
H365        H  0.12670304  0.98537952  0.28511183     0.00800
H366        H  0.01947851  0.84446412  0.19873581     0.04500
H367        H  0.00998776  0.87841041  0.16164594     0.06400
H368        H  0.98426717  0.87958662  0.20945512     0.07300
C369        C  0.47276689  0.21301231  0.94972544    -0.22300
C370        C  0.45774841  0.21590858  0.98851900     0.09700
C371        C  0.43810161  0.18439941  0.00746257     0.10100
C372        C  0.43806552  0.14947773  0.98870150    -0.17200
C373        C  0.45708693  0.14475891  0.95085948    -0.27600
C374        C  0.46938954  0.17905174  0.92918038     0.18400
C375        C  0.45953129  0.25343988  0.00674688     0.12400
C376        C  0.41839095  0.18738612  0.04803512    -0.12000
H377        H  0.42508051  0.12507319  0.00502928     0.12600
C378        C  0.47380344  0.18450428  0.88464578    -0.22800
H379        H  0.48449873  0.23847803  0.93426637     0.08300
C380        C  0.49446178  0.26877387  0.02294911     0.04600
C381        C  0.49630820  0.30637102  0.03497865    -0.20100
C382        C  0.46423398  0.32937863  0.03045585    -0.12300
C383        C  0.42826115  0.31285543  0.01620655     0.13300
C384        C  0.42662405  0.27514611  0.00454098    -0.22800
C385        C  0.53000861  0.24563812  0.02674905    -0.05800
H386        H  0.52376173  0.31816807  0.04631546     0.14900
C387        C  0.39134834  0.33421564  0.01264703    -0.16000
H388        H  0.39988584  0.26275714  0.99219975     0.09200
H389        H  0.50536028  0.19095327  0.87520759     0.07000
H390        H  0.45717286  0.20901797  0.87584326     0.08200
H391        H  0.46083239  0.16160799  0.86710252     0.07300
H392        H  0.39440978  0.20729063  0.04706131     0.02200
H393        H  0.44058850  0.19775478  0.06917640     0.02700
H394        H  0.40499391  0.15979203  0.05914158     0.06100
H395        H  0.55493130  0.26185663  0.04025521     0.05100
H396        H  0.54062434  0.23639325  0.99709495    -0.00600
H397        H  0.52170585  0.22047544  0.04571911     0.00800
H398        H  0.39618058  0.35630675  0.98926706     0.04500
H399        H  0.38320306  0.34694463  0.04146935     0.06400
H400        H  0.36561372  0.31559352  0.00421612     0.07300
C401        C  0.52835793  0.10710590  0.83951695    -0.22300
C402        C  0.50347901  0.08964580  0.81262959     0.09700
C403        C  0.46521861  0.07573372  0.82537278     0.10100
C404        C  0.45185798  0.08117110  0.86451187    -0.17200
C405        C  0.47551846  0.10068334  0.89229153    -0.27600
C406        C  0.51554750  0.11236316  0.87904410     0.18400
C407        C  0.51884411  0.08323695  0.77184144     0.12400
C408        C  0.43885568  0.05377643  0.79787361    -0.12000
H409        H  0.42293125  0.06847720  0.87299595     0.12600
C410        C  0.54657944  0.12961283  0.90521162    -0.22800
H411        H  0.55842704  0.11629568  0.82962881     0.08300
C412        C  0.51204931  0.10800905  0.74036648     0.04600
C413        C  0.52157151  0.09747754  0.70134078    -0.20100
C414        C  0.53743529  0.06267792  0.69349197    -0.12300
C415        C  0.54708767  0.03935265  0.72538991     0.13300
C416        C  0.53734023  0.04984076  0.76417900    -0.22800
C417        C  0.49353014  0.14479641  0.74800118    -0.05800
H418        H  0.51440005  0.11535958  0.67686814     0.14900
C419        C  0.56740976  0.00313041  0.71960791    -0.16000
H420        H  0.54303556  0.03123987  0.78860519     0.09200
H421        H  0.56027183  0.15599773  0.89139486     0.07000
H422        H  0.57023378  0.10967438  0.90869612     0.08200
H423        H  0.53493495  0.13693272  0.93477165     0.07300
H424        H  0.45344992  0.02818719  0.78793874     0.02200
H425        H  0.43335553  0.07137725  0.77165223     0.02700
H426        H  0.40966249  0.04467179  0.81245355     0.06100
H427        H  0.48995727  0.16069741  0.72008945     0.05100
H428        H  0.51266394  0.16246043  0.76716528    -0.00600
H429        H  0.46377437  0.13960271  0.76305566     0.00800
H430        H  0.59465970  0.00390648  0.73678249     0.04500
H431        H  0.57669576  0.99833369  0.68832093     0.06400
H432        H  0.54721736  0.97905688  0.73043834     0.07300
C433        C  0.27767605  0.01198462  0.94362592    -0.22300
C434        C  0.29776772  0.03430801  0.97106658     0.09700
C435        C  0.27761117  0.04448046  0.00646068     0.10100
C436        C  0.23769962  0.03190462  0.01369464    -0.17200
C437        C  0.21717930  0.01052592  0.98573827    -0.27600
C438        C  0.23754677  0.00000084  0.95045525     0.18400
C439        C  0.33881464  0.04949071  0.96074515     0.12400
C440        C  0.29760747  0.07018922  0.03559464    -0.12000
H441        H  0.22180299  0.04050279  0.04032750     0.12600
C442        C  0.21791970  0.97616467  0.91950969    -0.22800
H443        H  0.29320505  0.00450197  0.91634394     0.08300
C444        C  0.37208165  0.03290680  0.97480657     0.04600
C445        C  0.41004732  0.05017484  0.96649689    -0.20100
C446        C  0.41668871  0.08387367  0.94337381    -0.12300
C447        C  0.38180029  0.09978153  0.92867106     0.13300
C448        C  0.34402358  0.08211917  0.93756859    -0.22800
C449        C  0.36753010  0.99664283  0.99851909    -0.05800
H450        H  0.43413038  0.03654953  0.97916059     0.14900
C451        C  0.38240718  0.13541133  0.90377914    -0.16000
H452        H  0.31777848  0.09434106  0.92701177     0.09200
H453        H  0.23463221  0.95060030  0.91455916     0.07000
H454        H  0.21809564  0.99239849  0.89128153     0.08200
H455        H  0.18682038  0.96670904  0.92810313     0.07300
H456        H  0.30758677  0.09734012  0.02078376     0.02200
H457        H  0.32370957  0.05711124  0.04724884     0.02700
H458        H  0.27722138  0.07625774  0.06110446     0.06100
H459        H  0.39661038  0.98700309  0.00712211     0.05100
H460        H  0.35299940  0.97427288  0.98064214    -0.00600
H461        H  0.34906203  0.00031779  0.02598187     0.00800
H462        H  0.35241313  0.14119443  0.89401129     0.04500
H463        H  0.40096110  0.13304429  0.87638588     0.06400
H464        H  0.39200025  0.16033035  0.92083552     0.07300
C465        C  0.93727993  0.41627681  0.30434578    -0.22300
C466        C  0.96935405  0.42424587  0.27715263     0.09700
C467        C  0.00627899  0.43760577  0.29106502     0.10100
C468        C  0.01012682  0.44315295  0.33187457    -0.17200
C469        C  0.97777274  0.43610244  0.35915108    -0.27600
C470        C  0.94104384  0.42163183  0.34514364     0.18400
C471        C  0.96289673  0.41958545  0.23420236     0.12400
C472        C  0.04132881  0.44680123  0.26275397    -0.12000
H473        H  0.03821595  0.45434374  0.34240776     0.12600
C474        C  0.90553465  0.41052190  0.37227561    -0.22800
H475        H  0.90903679  0.40567888  0.29361523     0.08300
C476        C  0.96808409  0.38541209  0.21497405     0.04600
C477        C  0.95854710  0.38179130  0.17515085    -0.20100
C478        C  0.94056265  0.41049211  0.15389163    -0.12300
C479        C  0.94092003  0.44671922  0.17264948     0.13300
C480        C  0.95088634  0.45005409  0.21252006    -0.22800
C481        C  0.98319765  0.35239268  0.23670132    -0.05800
H482        H  0.96494434  0.35555458  0.16147395     0.14900
C483        C  0.93122197  0.48271421  0.15214841    -0.16000
H484        H  0.94907804  0.47681264  0.22726580     0.09200
H485        H  0.89498783  0.38107048  0.36631213     0.07000
H486        H  0.88125845  0.42931111  0.36683335     0.08200
H487        H  0.91228792  0.41160086  0.40392080     0.07300
H488        H  0.03413605  0.46921406  0.24165891     0.02200
H489        H  0.04875899  0.42140018  0.24595637     0.02700
H490        H  0.06800419  0.45687680  0.27847618     0.06100
H491        H  0.98553811  0.32749482  0.21743986     0.05100
H492        H  0.96260482  0.34425123  0.26230591    -0.00600
H493        H  0.01306979  0.35999367  0.24755230     0.00800
H494        H  0.93257014  0.50708836  0.17233718     0.04500
H495        H  0.90088596  0.48077617  0.14160582     0.06400
H496        H  0.95326700  0.49006843  0.12767946     0.07300
C497        C  0.81431121  0.40547848  0.07712403    -0.22300
C498        C  0.79539553  0.42178749  0.10966400     0.09700
C499        C  0.81614465  0.42749575  0.14426873     0.10100
C500        C  0.85609895  0.41894010  0.14477033    -0.17200
C501        C  0.87765520  0.40677335  0.11063636    -0.27600
C502        C  0.85447743  0.39678552  0.07726190     0.18400
C503        C  0.75404490  0.43337789  0.10659641     0.12400
C504        C  0.79632050  0.44352190  0.18061856    -0.12000
H505        H  0.86989504  0.42221336  0.17262260     0.12600
C506        C  0.87099451  0.37768285  0.04089251    -0.22800
H507        H  0.79739392  0.39976192  0.05118053     0.08300
C508        C  0.74621385  0.46676669  0.08650808     0.04600
C509        C  0.70686721  0.47682378  0.08410081    -0.20100
C510        C  0.67447500  0.45419090  0.10087090    -0.12300
C511        C  0.68270980  0.42069060  0.12149452     0.13300
C512        C  0.72235500  0.41096567  0.12420065    -0.22800
C513        C  0.77949561  0.49191161  0.06759350    -0.05800
H514        H  0.70149840  0.50231158  0.06794559     0.14900
C515        C  0.65041541  0.39482664  0.14078057    -0.16000
H516        H  0.72874755  0.38538904  0.13971212     0.09200
H517        H  0.85012323  0.37745049  0.01647530     0.07000
H518        H  0.87561354  0.34783194  0.04780483     0.08200
H519        H  0.89913561  0.39221882  0.02933493     0.07300
H520        H  0.77063092  0.42454444  0.19115441     0.02200
H521        H  0.78582259  0.47164103  0.17345637     0.02700
H522        H  0.81687516  0.44686018  0.20519110     0.06100
H523        H  0.76834640  0.51729950  0.05354673     0.05100
H524        H  0.79569640  0.47636267  0.04434622    -0.00600
H525        H  0.80042683  0.50131946  0.09034981     0.00800
H526        H  0.63280467  0.38106764  0.11763462     0.04500
H527        H  0.63114034  0.41085638  0.16103510     0.06400
H528        H  0.66265860  0.37209415  0.15839757     0.07300
C529        C  0.94161721  0.22534649  0.03928578    -0.22300
C530        C  0.95600167  0.24394508  0.07258945     0.09700
C531        C  0.97998569  0.22469996  0.09805321     0.10100
C532        C  0.98945836  0.18770044  0.08942632    -0.17200
C533        C  0.97584824  0.16887713  0.05567648    -0.27600
C534        C  0.95121707  0.18820899  0.03037361     0.18400
C535        C  0.94632064  0.28376611  0.08012863     0.12400
C536        C  0.99640829  0.24351540  0.13400525    -0.12000
H537        H  0.00797877  0.17345920  0.10936574     0.12600
C538        C  0.93574073  0.17064735  0.99338673    -0.22800
H539        H  0.92304286  0.24021421  0.01991521     0.08300
C540        C  0.96483626  0.31408880  0.05791860     0.04600
C541        C  0.95601420  0.35119357  0.06715781    -0.20100
C542        C  0.92988758  0.35997814  0.09948624    -0.12300
C543        C  0.90939307  0.32825158  0.12015213     0.13300
C544        C  0.91858967  0.29123773  0.11047509    -0.22800
C545        C  0.99484353  0.30736649  0.02478442    -0.05800
H546        H  0.96969374  0.37303053  0.04791150     0.14900
C547        C  0.87706583  0.33190202  0.15215089    -0.16000
H548        H  0.90372773  0.26755465  0.12666054     0.09200
H549        H  0.91854286  0.19043148  0.97645974     0.07000
H550        H  0.91562045  0.14563749  0.00128207     0.08200
H551        H  0.96088475  0.16236281  0.97374477     0.07300
H552        H  0.97174064  0.25071423  0.15480194     0.02200
H553        H  0.01433144  0.26962451  0.12492588     0.02700
H554        H  0.01575212  0.22501019  0.15005417     0.06100
H555        H  0.00737669  0.33410418  0.01073305     0.05100
H556        H  0.98069943  0.29016482  0.00156854    -0.00600
H557        H  0.01973867  0.29232160  0.03650556     0.00800
H558        H  0.84987111  0.34130889  0.13901870     0.04500
H559        H  0.88650930  0.35135824  0.17560039     0.06400
H560        H  0.86835628  0.30450689  0.16708508     0.07300
C561        C  0.54046529  0.95746994  0.01909627    -0.22300
C562        C  0.55090984  0.99524153  0.02689598     0.09700
C563        C  0.57756963  0.00276707  0.05721226     0.10100
C564        C  0.58902848  0.97293816  0.08070844    -0.17200
C565        C  0.58189285  0.93441922  0.07096327    -0.27600
C566        C  0.55978235  0.92774298  0.03600611     0.18400
C567        C  0.53311818  0.02535521  0.00294103     0.12400
C568        C  0.59723184  0.04114561  0.06422055    -0.12000
H569        H  0.60705387  0.98021382  0.10532349     0.12600
C570        C  0.55898586  0.89238759  0.01161971    -0.22800
H571        H  0.51934587  0.95109034  0.99661956     0.08300
C572        C  0.52792793  0.02204471  0.96189568     0.04600
C573        C  0.50324048  0.04621680  0.94329248    -0.20100
C574        C  0.49054017  0.07996988  0.96078461    -0.12300
C575        C  0.50397463  0.08685898  0.00002689     0.13300
C576        C  0.51912020  0.05725365  0.02159156    -0.22800
C577        C  0.54866415  0.99428477  0.93605177    -0.05800
H578        H  0.49499515  0.03852657  0.91384066     0.14900
C579        C  0.51032464  0.12474272  0.01906759    -0.16000
H580        H  0.52316838  0.06081554  0.05293433     0.09200
H581        H  0.55128391  0.89836620  0.98067693     0.07000
H582        H  0.53559154  0.87151145  0.02299532     0.08200
H583        H  0.58865556  0.88095325  0.00845761     0.07300
H584        H  0.58647554  0.05179958  0.09324476     0.02200
H585        H  0.59242868  0.06186556  0.04055969     0.02700
H586        H  0.62988049  0.03897126  0.06463284     0.06100
H587        H  0.56386188  0.00946651  0.91020382     0.05100
H588        H  0.52662245  0.97294171  0.92509516    -0.00600
H589        H  0.57201672  0.98008473  0.95134890     0.00800
H590        H  0.53935242  0.12651822  0.03333723     0.04500
H591        H  0.48710984  0.12838425  0.04276434     0.06400
H592        H  0.51313452  0.14843959  0.99767104     0.07300
C593        C  0.59259452  0.92530371  0.28221482    -0.22300
C594        C  0.55955058  0.90726145  0.26566507     0.09700
C595        C  0.52538581  0.89717659  0.28998774     0.10100
C596        C  0.52372404  0.90904501  0.32958549    -0.17200
C597        C  0.55591498  0.92977418  0.34546147    -0.27600
C598        C  0.59155643  0.93632782  0.32174257     0.18400
C599        C  0.56234018  0.90104031  0.22240087     0.12400
C600        C  0.49140513  0.87309191  0.27466727    -0.12000
H601        H  0.49689186  0.90282931  0.34788575     0.12600
C602        C  0.62898747  0.95461757  0.33749528    -0.22800
H603        H  0.61918258  0.93176508  0.26356046     0.08300
C604        C  0.54710043  0.92643306  0.19571557     0.04600
C605        C  0.55816340  0.92491570  0.15528165    -0.20100
C606        C  0.58802907  0.90159334  0.14064553    -0.12300
C607        C  0.60164016  0.87456674  0.16817649     0.13300
C608        C  0.58806656  0.87464789  0.20810400    -0.22800
C609        C  0.52167101  0.95735399  0.21015405    -0.05800
H610        H  0.54412496  0.94359803  0.13581914     0.14900
C611        C  0.63274312  0.84707925  0.15763948    -0.16000
H612        H  0.59983632  0.85556907  0.22917562     0.09200
H613        H  0.65482692  0.95286598  0.31620351     0.07000
H614        H  0.63620630  0.94027928  0.36533762     0.08200
H615        H  0.62531793  0.98490122  0.34266387     0.07300
H616        H  0.50220074  0.84562520  0.26519889     0.02200
H617        H  0.47870129  0.88681158  0.24905403     0.02700
H618        H  0.46722899  0.86759480  0.29776756     0.06100
H619        H  0.51353832  0.97579263  0.18550038     0.05100
H620        H  0.53815739  0.97523259  0.23132463    -0.00600
H621        H  0.49379622  0.94541783  0.22505435     0.00800
H622        H  0.64402480  0.83368538  0.18434785     0.04500
H623        H  0.65884024  0.86138345  0.14160476     0.06400
H624        H  0.61980446  0.82373444  0.14012119     0.07300
C625        C  0.57633967  0.73469480  0.00721752    -0.22300
C626        C  0.58485115  0.74657815  0.04547602     0.09700
C627        C  0.58773594  0.71957819  0.07583537     0.10100
C628        C  0.58151932  0.68127871  0.06745204    -0.17200
C629        C  0.57197576  0.66912881  0.02948705    -0.27600
C630        C  0.57005388  0.69621880  0.99870932     0.18400
C631        C  0.58962236  0.78736299  0.05404076     0.12400
C632        C  0.59679396  0.73128728  0.11730753    -0.12000
H633        H  0.58285599  0.66067642  0.09112324     0.12600
C634        C  0.56263964  0.68569998  0.95653923    -0.22800
H635        H  0.57456428  0.75556432  0.98388627     0.08300
C636        C  0.62688210  0.80709507  0.05105387     0.04600
C637        C  0.63081960  0.84430512  0.06430897    -0.20100
C638        C  0.59811448  0.86356077  0.08031058    -0.12300
C639        C  0.56051398  0.84213375  0.08408382     0.13300
C640        C  0.55703394  0.80507252  0.07012757    -0.22800
C641        C  0.66296518  0.78827276  0.03511585    -0.05800
H642        H  0.66058697  0.85682039  0.06403693     0.14900
C643        C  0.52319013  0.85692121  0.10301364    -0.16000
H644        H  0.52874540  0.78897385  0.07333195     0.09200
H645        H  0.58748553  0.69779684  0.93680982     0.07000
H646        H  0.53459896  0.69731161  0.94756791     0.08200
H647        H  0.56069290  0.65494076  0.95183024     0.07300
H648        H  0.57358575  0.74940109  0.12924103     0.02200
H649        H  0.62608709  0.74720274  0.11713771     0.02700
H650        H  0.59770887  0.70663530  0.13757281     0.06100
H651        H  0.69011097  0.80753585  0.03456930     0.05100
H652        H  0.65825821  0.77891574  0.00441113    -0.00600
H653        H  0.66818862  0.76345908  0.05388906     0.00800
H654        H  0.49625196  0.83969742  0.09512832     0.04500
H655        H  0.51880100  0.88601896  0.09318425     0.06400
H656        H  0.52420618  0.85544007  0.13567800     0.07300
C657        C  0.79822059  0.93989845  0.06220524    -0.22300
C658        C  0.77059851  0.96691053  0.06963577     0.09700
C659        C  0.78392909  0.00526542  0.07161800     0.10100
C660        C  0.82496252  0.01549280  0.06734792    -0.17200
C661        C  0.85272702  0.98810255  0.06115957    -0.27600
C662        C  0.83888261  0.95001397  0.05718649     0.18400
C663        C  0.72811345  0.95368263  0.07615842     0.12400
C664        C  0.75481332  0.03526882  0.07766578    -0.12000
H665        H  0.83541000  0.04476199  0.06935939     0.12600
C666        C  0.86665085  0.91994537  0.04603212    -0.22800
H667        H  0.78776723  0.91061377  0.06018911     0.08300
C668        C  0.70499783  0.94074117  0.04512242     0.04600
C669        C  0.66626557  0.92523685  0.05357639    -0.20100
C670        C  0.64893154  0.92138944  0.09267221    -0.12300
C671        C  0.67183230  0.93906502  0.12337514     0.13300
C672        C  0.71128218  0.95284381  0.11451405    -0.22800
C673        C  0.72100628  0.94397880  0.00284412    -0.05800
H674        H  0.64904588  0.91566591  0.02902535     0.14900
C675        C  0.65647803  0.94774768  0.16484129    -0.16000
H676        H  0.72935142  0.96395574  0.13787996     0.09200
H677        H  0.88282619  0.92765557  0.01752357     0.07000
H678        H  0.85051763  0.89218536  0.04231666     0.08200
H679        H  0.88794765  0.91663210  0.06944750     0.07300
H680        H  0.73823002  0.03085062  0.10658867     0.02200
H681        H  0.73350312  0.03407520  0.05362612     0.02700
H682        H  0.76996005  0.06384838  0.07734604     0.06100
H683        H  0.69866822  0.93363705  0.98182469     0.05100
H684        H  0.74741955  0.92715052  0.99871681    -0.00600
H685        H  0.72955922  0.97391881  0.99537560     0.00800
H686        H  0.65507948  0.92247593  0.18409533     0.04500
H687        H  0.62798870  0.96137824  0.16473758     0.06400
H688        H  0.67676312  0.96832742  0.17958527     0.07300
C689        C  0.44456611  0.21388746  0.51603512    -0.22300
C690        C  0.47665575  0.24060250  0.51406382     0.09700
C691        C  0.51497777  0.22979700  0.52152756     0.10100
C692        C  0.52075510  0.19170099  0.52866996    -0.17200
C693        C  0.48901940  0.16410712  0.52838719    -0.27600
C694        C  0.45005307  0.17573489  0.52307824     0.18400
C695        C  0.46936013  0.27929904  0.50168818     0.12400
C696        C  0.54975364  0.25839352  0.52116572    -0.12000
H697        H  0.55057903  0.18337826  0.53295965     0.12600
C698        C  0.41387542  0.14865196  0.52488009    -0.22800
H699        H  0.41516280  0.22291402  0.51076567     0.08300
C700        C  0.47088229  0.28983235  0.46157024     0.04600
C701        C  0.46081200  0.32595649  0.45082765    -0.20100
C702        C  0.44553679  0.35137038  0.47880377    -0.12300
C703        C  0.44822396  0.34123108  0.51994567     0.13300
C704        C  0.45936791  0.30520162  0.53035213    -0.22800
C705        C  0.48237395  0.26252738  0.42991506    -0.05800
H706        H  0.46497555  0.33361798  0.41999853     0.14900
C707        C  0.43874435  0.36686527  0.55398992    -0.16000
H708        H  0.45977099  0.29680065  0.56123217     0.09200
H709        H  0.41463417  0.12949277  0.49928197     0.07000
H710        H  0.38599413  0.16354046  0.52367338     0.08200
H711        H  0.41249470  0.13221154  0.55303696     0.07300
H712        H  0.54445407  0.27970230  0.54420605     0.02200
H713        H  0.55359652  0.27271094  0.49180949     0.02700
H714        H  0.57781604  0.24517524  0.52725359     0.06100
H715        H  0.48210656  0.27520483  0.39979458     0.05100
H716        H  0.46108098  0.23747966  0.43128446    -0.00600
H717        H  0.51268169  0.25342423  0.43442147     0.00800
H718        H  0.43674092  0.35157272  0.58287997     0.04500
H719        H  0.40981285  0.37929238  0.55085404     0.06400
H720        H  0.46293579  0.38905055  0.55626295     0.07300
C721        C  0.24615598  0.42176050  0.53369717    -0.22300
C722        C  0.25886855  0.41404922  0.49488689     0.09700
C723        C  0.23086464  0.41074394  0.46532387     0.10100
C724        C  0.19118525  0.41833496  0.47467543    -0.17200
C725        C  0.17840274  0.42803619  0.51332521    -0.27600
C726        C  0.20635097  0.42829569  0.54356566     0.18400
C727        C  0.30140728  0.40746297  0.48672157     0.12400
C728        C  0.24267250  0.39836108  0.42421577    -0.12000
H729        H  0.17023297  0.41712705  0.45137201     0.12600
C730        C  0.19486852  0.43443342  0.58653192    -0.22800
H731        H  0.26772589  0.42270326  0.55646616     0.08300
C732        C  0.32855455  0.43559900  0.47079907     0.04600
C733        C  0.36841938  0.42762549  0.46410465    -0.20100
C734        C  0.38370224  0.39284604  0.47525860    -0.12300
C735        C  0.35490417  0.36422978  0.49144412     0.13300
C736        C  0.31479085  0.37260553  0.49682049    -0.22800
C737        C  0.31578255  0.47456567  0.46212316    -0.05800
H738        H  0.38853801  0.44968374  0.45107255     0.14900
C739        C  0.36272257  0.32403913  0.50220561    -0.16000
H740        H  0.29308895  0.35153458  0.50934668     0.09200
H741        H  0.18652155  0.46376208  0.59103372     0.07000
H742        H  0.21979484  0.42990447  0.60597515     0.08200
H743        H  0.16983227  0.41427436  0.59623601     0.07300
H744        H  0.25485476  0.37014395  0.42576589     0.02200
H745        H  0.26560394  0.41853712  0.41030116     0.02700
H746        H  0.21696873  0.39645427  0.40487834     0.06100
H747        H  0.34101863  0.49364430  0.45057038     0.05100
H748        H  0.30337315  0.48683799  0.48970692    -0.00600
H749        H  0.29279104  0.47346778  0.43977355     0.00800
H750        H  0.37491327  0.32252931  0.53185614     0.04500
H751        H  0.38132675  0.31051031  0.47968344     0.06400
H752        H  0.33487003  0.30571983  0.50449947     0.07300
C753        C  0.42383805  0.37899438  0.34874141    -0.22300
C754        C  0.44806529  0.40991790  0.33499086     0.09700
C755        C  0.46136442  0.43684319  0.36206860     0.10100
C756        C  0.45367034  0.43017600  0.40266599    -0.17200
C757        C  0.43356070  0.39647214  0.41820746    -0.27600
C758        C  0.41466503  0.37265991  0.38944846     0.18400
C759        C  0.45605403  0.41571641  0.29179703     0.12400
C760        C  0.48266523  0.47341984  0.34805021    -0.12000
H761        H  0.46336323  0.45246391  0.42192244     0.12600
C762        C  0.38377923  0.34111944  0.39964140    -0.22800
H763        H  0.41134745  0.36000832  0.32711621     0.08300
C764        C  0.49323201  0.40913110  0.27323900     0.04600
C765        C  0.50108673  0.42014236  0.23342686    -0.20100
C766        C  0.47223547  0.43693159  0.21170914    -0.12300
C767        C  0.43367927  0.43997270  0.22950764     0.13300
C768        C  0.42630975  0.42973384  0.26944293    -0.22800
C769        C  0.52434851  0.39024134  0.29542805    -0.05800
H770        H  0.53018747  0.41662865  0.21960866     0.14900
C771        C  0.39977038  0.45306468  0.20649963    -0.16000
H772        H  0.39742729  0.43351706  0.28365312     0.09200
H773        H  0.37229342  0.32752958  0.37273290     0.07000
H774        H  0.35763107  0.35215103  0.41531305     0.08200
H775        H  0.39589049  0.31836066  0.41663931     0.07300
H776        H  0.46321146  0.48894057  0.32890987     0.02200
H777        H  0.51043120  0.46798052  0.33090194     0.02700
H778        H  0.49069962  0.49181752  0.37309502     0.06100
H779        H  0.55147916  0.38661155  0.27639404     0.05100
H780        H  0.51232291  0.36198356  0.30596016    -0.00600
H781        H  0.53300391  0.40711959  0.32132676     0.00800
H782        H  0.39672127  0.43609795  0.17934610     0.04500
H783        H  0.37111665  0.44976686  0.22401799     0.06400
H784        H  0.40481190  0.48330262  0.19850725     0.07300
C785        C  0.96319464  0.48385865  0.03433125    -0.22300
C786        C  0.00400984  0.48260921  0.03781472     0.09700
C787        C  0.01810963  0.45682067  0.06467782     0.10100
C788        C  0.99109449  0.43089993  0.08490424    -0.17200
C789        C  0.94909251  0.43133604  0.08239048    -0.27600
C790        C  0.93533082  0.46061625  0.05716965     0.18400
C791        C  0.03059516  0.51123080  0.01536143     0.12400
C792        C  0.06130895  0.45826999  0.07428855    -0.12000
H793        H  0.00304841  0.41054738  0.10440194     0.12600
C794        C  0.89293575  0.47157486  0.05408820    -0.22800
H795        H  0.95299702  0.50483589  0.01430297     0.08300
C796        C  0.05310945  0.50232289  0.98124289     0.04600
C797        C  0.07667388  0.53084796  0.96094052    -0.20100
C798        C  0.07666463  0.56968352  0.97111976    -0.12300
C799        C  0.05031772  0.57843775  0.00424395     0.13300
C800        C  0.02950552  0.54888153  0.02618483    -0.22800
C801        C  0.05061445  0.46312588  0.96470952    -0.05800
H802        H  0.09524076  0.52262971  0.93595384     0.14900
C803        C  0.04064045  0.61729854  0.01773209    -0.16000
H804        H  0.01069908  0.55528356  0.05178878     0.09200
H805        H  0.87692488  0.45327786  0.03322636     0.07000
H806        H  0.89168874  0.50042380  0.04152051     0.08200
H807        H  0.87688786  0.47298518  0.08305090     0.07300
H808        H  0.06975495  0.48611800  0.08688628     0.02200
H809        H  0.08048235  0.45415003  0.04748083     0.02700
H810        H  0.06736393  0.43626195  0.09634937     0.06100
H811        H  0.06893108  0.46132676  0.93675347     0.05100
H812        H  0.01935779  0.45496509  0.95825844    -0.00600
H813        H  0.06101718  0.44253359  0.98602003     0.00800
H814        H  0.03654500  0.63682288  0.99292889     0.04500
H815        H  0.06299960  0.62838895  0.03820771     0.06400
H816        H  0.01183373  0.61658340  0.03504728     0.07300
C817        C  0.22212289  0.60044320  0.93485714    -0.22300
C818        C  0.23036284  0.57216226  0.96147065     0.09700
C819        C  0.19907776  0.55392307  0.98430225     0.10100
C820        C  0.15988961  0.56302558  0.97847627    -0.17200
C821        C  0.14978813  0.58961416  0.94925314    -0.27600
C822        C  0.18301189  0.61033644  0.92901128     0.18400
C823        C  0.27227258  0.56296868  0.96590797     0.12400
C824        C  0.20717129  0.52528086  0.01568497    -0.12000
H825        H  0.13764158  0.54938695  0.99845543     0.12600
C826        C  0.17922833  0.64363194  0.90160952    -0.22800
H827        H  0.24693588  0.61528449  0.91875895     0.08300
C828        C  0.28859666  0.53281293  0.94544452     0.04600
C829        C  0.32793069  0.52430575  0.95159002    -0.20100
C830        C  0.35155697  0.54552839  0.97739342    -0.12300
C831        C  0.33517559  0.57594516  0.99768526     0.13300
C832        C  0.29580218  0.58444506  0.99141896    -0.22800
C833        C  0.26449379  0.50971389  0.91705969    -0.05800
H834        H  0.34030781  0.50081281  0.93628534     0.14900
C835        C  0.35820774  0.59817067  0.02758461    -0.16000
H836        H  0.28293469  0.60744294  0.00714934     0.09200
H837        H  0.20844353  0.65445937  0.88832273     0.07000
H838        H  0.16743985  0.66750907  0.91801386     0.08200
H839        H  0.16102327  0.63604480  0.87647309     0.07300
H840        H  0.22636869  0.53865731  0.03797763     0.02200
H841        H  0.22242763  0.50153257  0.00217611     0.02700
H842        H  0.17942890  0.51353639  0.03129082     0.06100
H843        H  0.28183800  0.48739402  0.90324889     0.05100
H844        H  0.25489724  0.52819200  0.89311863    -0.00600
H845        H  0.23783867  0.49593177  0.93276807     0.00800
H846        H  0.38490708  0.61291521  0.01295424     0.04500
H847        H  0.36732568  0.57899658  0.05116015     0.06400
H848        H  0.34023955  0.61980793  0.04184670     0.07300
C849        C  0.04272766  0.58065412  0.84772307    -0.22300
C850        C  0.07231665  0.57264427  0.81945215     0.09700
C851        C  0.11086859  0.56795724  0.83168051     0.10100
C852        C  0.11953718  0.57352362  0.87146216    -0.17200
C853        C  0.09153313  0.58675273  0.89982949    -0.27600
C854        C  0.05115179  0.58657610  0.88773090     0.18400
C855        C  0.06204035  0.56700406  0.77748975     0.12400
C856        C  0.14307078  0.55692556  0.80253364    -0.12000
H857        H  0.14899781  0.56767027  0.87951364     0.12600
C858        C  0.01608570  0.59315057  0.91566299    -0.22800
H859        H  0.01262511  0.58210010  0.83829243     0.08300
C860        C  0.04697963  0.53172184  0.76435980     0.04600
C861        C  0.04073287  0.52669955  0.72393009    -0.20100
C862        C  0.04841781  0.55632112  0.69632908    -0.12300
C863        C  0.06261639  0.59194878  0.70956822     0.13300
C864        C  0.06945184  0.59678175  0.75001137    -0.22800
C865        C  0.03808777  0.49925483  0.79298192    -0.05800
H866        H  0.02999279  0.49936137  0.71368145     0.14900
C867        C  0.07196301  0.62497449  0.68176109    -0.16000
H868        H  0.08121207  0.62382379  0.76011390     0.09200
H869        H  0.00982080  0.56879451  0.93608810     0.07000
H870        H  0.98849262  0.59618812  0.89962911     0.08200
H871        H  0.02120398  0.61928111  0.93233379     0.07300
H872        H  0.14788875  0.57871265  0.77878033     0.02200
H873        H  0.13427376  0.52952986  0.78915533     0.02700
H874        H  0.17171213  0.55408712  0.81677905     0.06100
H875        H  0.02693377  0.47349244  0.77781465     0.05100
H876        H  0.01505713  0.50669175  0.81553425    -0.00600
H877        H  0.06541585  0.49272417  0.80800452     0.00800
H878        H  0.05437215  0.64885433  0.69139663     0.04500
H879        H  0.06509269  0.61861482  0.65073443     0.06400
H880        H  0.10402556  0.63375752  0.68235546     0.07300
C881        C  0.06498429  0.76598013  0.01548528    -0.22300
C882        C  0.09745281  0.75691375  0.99091851     0.09700
C883        C  0.12442297  0.78604312  0.97577786     0.10100
C884        C  0.11762760  0.82373182  0.98463988    -0.17200
C885        C  0.08419653  0.83289434  0.00790017    -0.27600
C886        C  0.05811864  0.80354125  0.02435501     0.18400
C887        C  0.10041426  0.71719097  0.97842737     0.12400
C888        C  0.15980944  0.77731624  0.94952850    -0.12000
H889        H  0.13739401  0.84620389  0.97179778     0.12600
C890        C  0.02270023  0.81089033  0.05129645    -0.22800
H891        H  0.04432898  0.74360856  0.02712003     0.08300
C892        C  0.11652760  0.68993498  0.00202994     0.04600
C893        C  0.11717355  0.65265931  0.98878627    -0.20100
C894        C  0.10137172  0.64062444  0.95239392    -0.12300
C895        C  0.08863773  0.67029430  0.92699537     0.13300
C896        C  0.08693263  0.70709265  0.94158282    -0.22800
C897        C  0.13294707  0.70021878  0.04134656    -0.05800
H898        H  0.12914485  0.63212162  0.00805371     0.14900
C899        C  0.07925141  0.66728492  0.88374103    -0.16000
H900        H  0.07561753  0.72898387  0.92344628     0.09200
H901        H  0.02435118  0.79489430  0.07948112     0.07000
H902        H  0.99501094  0.80144923  0.03692270     0.08200
H903        H  0.02112688  0.84098052  0.05888590     0.07300
H904        H  0.14980071  0.76352570  0.92216377     0.02200
H905        H  0.17857836  0.75817080  0.96543189     0.02700
H906        H  0.17831498  0.80318387  0.94077359     0.06100
H907        H  0.14492584  0.67567026  0.05621530     0.05100
H908        H  0.10916265  0.71090738  0.06113943    -0.00600
H909        H  0.15734466  0.72241907  0.03695376     0.00800
H910        H  0.04787035  0.65774747  0.88047761     0.04500
H911        H  0.09993310  0.65033929  0.86659537     0.06400
H912        H  0.08262832  0.69520457  0.86853413     0.07300
C913        C  0.03030865  0.94894342  0.49539636    -0.22300
C914        C  0.05169434  0.97769707  0.51418894     0.09700
C915        C  0.09331053  0.97958967  0.51025470     0.10100
C916        C  0.11239758  0.95307009  0.48706537    -0.17200
C917        C  0.09163850  0.92588533  0.46382237    -0.27600
C918        C  0.04901285  0.92340396  0.47039263     0.18400
C919        C  0.02988936  0.00489415  0.53870048     0.12400
C920        C  0.11798309  0.01000562  0.53014005    -0.12000
H921        H  0.14416454  0.95424171  0.48823558     0.12600
C922        C  0.02094574  0.89473824  0.45226182    -0.22800
H923        H  0.99823456  0.94673904  0.49988399     0.08300
C924        C  0.00728335  0.03211217  0.52166083     0.04600
C925        C  0.98695615  0.05668776  0.54625387    -0.20100
C926        C  0.98859268  0.05591332  0.58819128    -0.12300
C927        C  0.01597144  0.03087237  0.60438511     0.13300
C928        C  0.03328648  0.00426491  0.57964840    -0.22800
C929        C  0.00436256  0.03528834  0.47743939    -0.05800
H930        H  0.96801263  0.07593192  0.53242865     0.14900
C931        C  0.03182306  0.03154385  0.64549799    -0.16000
H932        H  0.05170019  0.98375489  0.59231597     0.09200
H933        H  0.99681537  0.90913179  0.43823169     0.07000
H934        H  0.00762636  0.87503350  0.47559183     0.08200
H935        H  0.03492692  0.87864011  0.42893325     0.07300
H936        H  0.11415576  0.00694375  0.56275495     0.02200
H937        H  0.10880249  0.03808014  0.52090931     0.02700
H938        H  0.15012913  0.00880989  0.52212750     0.06100
H939        H  0.98636527  0.05892509  0.46895854     0.05100
H940        H  0.99012254  0.00901663  0.46589374    -0.00600
H941        H  0.03450930  0.04028952  0.46316058     0.00800
H942        H  0.01947979  0.00664795  0.66302334     0.04500
H943        H  0.02764754  0.05733703  0.66202112     0.06400
H944        H  0.06461306  0.03005801  0.64323794     0.07300
C945        C  0.02162559  0.17822379  0.57837115    -0.22300
C946        C  0.99243368  0.19840837  0.56144824     0.09700
C947        C  0.95522961  0.18019361  0.55540400     0.10100
C948        C  0.94735359  0.14294181  0.56853749    -0.17200
C949        C  0.97426785  0.12339280  0.59109531    -0.27600
C950        C  0.01368736  0.14110220  0.59276404     0.18400
C951        C  0.99994737  0.23945555  0.55363862     0.12400
C952        C  0.92301761  0.20043232  0.53622363    -0.12000
H953        H  0.91938989  0.12960604  0.56063425     0.12600
C954        C  0.04823293  0.12242609  0.60969883    -0.22800
H955        H  0.05068125  0.19227912  0.58142100     0.08300
C956        C  0.00044478  0.26492878  0.58523048     0.04600
C957        C  0.00251455  0.30364493  0.57703478    -0.20100
C958        C  0.00353304  0.31795623  0.53800725    -0.12300
C959        C  0.00350629  0.29230208  0.50620978     0.13300
C960        C  0.00264583  0.25340822  0.51455214    -0.22800
C961        C  0.99748864  0.25134663  0.62774528    -0.05800
H962        H  0.00283701  0.32300164  0.60154131     0.14900
C963        C  0.00177404  0.30422424  0.46344883    -0.16000
H964        H  0.00207363  0.23369512  0.49036949     0.09200
H965        H  0.07577454  0.14118079  0.60804070     0.07000
H966        H  0.05531103  0.09730196  0.59250569     0.08200
H967        H  0.04250677  0.11545327  0.64131165     0.07300
H968        H  0.93245828  0.20823089  0.50522659     0.02200
H969        H  0.91683615  0.22624768  0.55294500     0.02700
H970        H  0.89484329  0.18269917  0.53566659     0.06100
H971        H  0.99675645  0.27508483  0.64872154     0.05100
H972        H  0.02354615  0.23517475  0.63416349    -0.00600
H973        H  0.96991272  0.23308620  0.63329327     0.00800
H974        H  0.02982067  0.29789534  0.44717962     0.04500
H975        H  0.99673415  0.33435404  0.45929144     0.06400
H976        H  0.97669113  0.28827536  0.44991456     0.07300
C977        C  0.76405265  0.04184853  0.61816974    -0.22300
C978        C  0.78741360  0.06525998  0.59157016     0.09700
C979        C  0.76959725  0.08239563  0.55964004     0.10100
C980        C  0.72884785  0.07481033  0.55437003    -0.17200
C981        C  0.70574851  0.05028541  0.58019354    -0.27600
C982        C  0.72335761  0.03436975  0.61307306     0.18400
C983        C  0.83089170  0.06939290  0.59637917     0.12400
C984        C  0.79387528  0.10774859  0.53058230    -0.12000
H985        H  0.71533663  0.08674776  0.52904109     0.12600
C986        C  0.70001599  0.00957529  0.64337344    -0.22800
H987        H  0.77780728  0.02893161  0.64281080     0.08300
C988        C  0.84816583  0.09740812  0.61990323     0.04600
C989        C  0.88931858  0.09941420  0.62387458    -0.20100
C990        C  0.91508746  0.07407848  0.60503557    -0.12300
C991        C  0.89596557  0.04361484  0.58363746     0.13300
C992        C  0.85477846  0.04321903  0.57855775    -0.22800
C993        C  0.82317147  0.12551571  0.64061344    -0.05800
H994        H  0.90188522  0.12232829  0.64095788     0.14900
C995        C  0.91447878  0.00874789  0.56801747    -0.16000
H996        H  0.84049999  0.02095188  0.56164277     0.09200
H997        H  0.70363773  0.02149613  0.67326917     0.07000
H998        H  0.71125902  0.98092809  0.64287682     0.08200
H999        H  0.66778940  0.00727739  0.63834130     0.07300
H1000       H  0.81798695  0.09208357  0.51632943     0.02200
H1001       H  0.80719527  0.13233565  0.54615924     0.02700
H1002       H  0.77552244  0.11836795  0.50697329     0.06100
H1003       H  0.84138417  0.14578340  0.65797437     0.05100
H1004       H  0.80085982  0.11058281  0.66125189    -0.00600
H1005       H  0.80759815  0.14173056  0.61855500     0.00800
H1006       H  0.89421739  0.98354493  0.57504643     0.04500
H1007       H  0.94199327  0.00182690  0.58150236     0.06400
H1008       H  0.91886675  0.01088385  0.53532737     0.07300
C1009       C  0.95873763  0.05405424  0.72317605    -0.22300
C1010       C  0.97267821  0.08735611  0.74054414     0.09700
C1011       C  0.97898072  0.12015316  0.71718263     0.10100
C1012       C  0.97334697  0.11834906  0.67645124    -0.17200
C1013       C  0.96366247  0.08397247  0.65703950    -0.27600
C1014       C  0.95238961  0.05203286  0.68243813     0.18400
C1015       C  0.98188669  0.08651123  0.78298216     0.12400
C1016       C  0.99130178  0.15730910  0.73528857    -0.12000
H1017       H  0.97665854  0.14466356  0.66026669     0.12600
C1018       C  0.93332191  0.01546615  0.66829630    -0.22800
H1019       H  0.95277048  0.02927092  0.74193158     0.08300
C1020       C  0.95201107  0.08159228  0.81339548     0.04600
C1021       C  0.96277089  0.07560533  0.85250749    -0.20100
C1022       C  0.00286792  0.07484908  0.86215802    -0.12300
C1023       C  0.03278616  0.08320038  0.83161301     0.13300
C1024       C  0.02171683  0.08825264  0.79255407    -0.22800
C1025       C  0.90882405  0.08283044  0.80455954    -0.05800
H1026       H  0.93951968  0.07039928  0.87538678     0.14900
C1027       C  0.07652708  0.08708878  0.83911087    -0.16000
H1028       H  0.04441096  0.09262868  0.76893889     0.09200
H1029       H  0.90337918  0.01982236  0.65789633     0.07000
H1030       H  0.92895221  0.99402305  0.69245134     0.08200
H1031       H  0.95194788  0.00294331  0.64508014     0.07300
H1032       H  0.02061025  0.15570431  0.74847307     0.02200
H1033       H  0.96892478  0.16433811  0.75867772     0.02700
H1034       H  0.99391957  0.18059101  0.71300614     0.06100
H1035       H  0.88932670  0.07970748  0.83188928     0.05100
H1036       H  0.90010201  0.05974283  0.78439907    -0.04600
H1037       H  0.90369176  0.11025301  0.79032267     0.00800
H1038       H  0.08733265  0.05943396  0.84736474     0.04500
H1039       H  0.08196227  0.10782502  0.86280983     0.06400
H1040       H  0.09452861  0.09726859  0.81236981     0.07300
C1041       C  0.52132523  0.45260786  0.49802385    -0.22300
C1042       C  0.50365380  0.47744169  0.52387332     0.09700
C1043       C  0.46257356  0.47359405  0.53234290     0.10100
C1044       C  0.43959873  0.44561594  0.51351311    -0.17200
C1045       C  0.45642707  0.42023428  0.48621993    -0.27600
C1046       C  0.49907759  0.42341829  0.48015240     0.18400
C1047       C  0.52901550  0.50701564  0.54239988     0.12400
C1048       C  0.44310956  0.49854963  0.56222239    -0.12000
H1049       H  0.40854463  0.44281909  0.52247083     0.12600
C1050       C  0.52274500  0.39615108  0.45615231    -0.22800
H1051       H  0.55326490  0.45561511  0.49269413     0.08300
C1052       C  0.55248406  0.49898746  0.57421251     0.04600
C1053       C  0.57462097  0.52844195  0.59158179    -0.20100
C1054       C  0.57254124  0.56659407  0.57964166    -0.12300
C1055       C  0.55377338  0.57298934  0.54295945     0.13300
C1056       C  0.53053257  0.54347381  0.52672819    -0.22800
C1057       C  0.55262074  0.45966741  0.59114867    -0.05800
H1058       H  0.59140326  0.52180727  0.61682959     0.14900
C1059       C  0.55831949  0.60822727  0.51726428    -0.16000
H1060       H  0.51433872  0.54862700  0.50044202     0.09200
H1061       H  0.52261452  0.36886434  0.47217034     0.07000
H1062       H  0.55447260  0.40610976  0.45192232     0.08200
H1063       H  0.51172686  0.39209791  0.42618754     0.07300
H1064       H  0.44749441  0.52839770  0.55232551     0.02200
H1065       H  0.45650230  0.49524185  0.59132707     0.02700
H1066       H  0.41069549  0.49147602  0.56625492     0.06100
H1067       H  0.57179141  0.45842011  0.61686391     0.05100
H1068       H  0.56390896  0.44039203  0.56829435    -0.00600
H1069       H  0.52198155  0.44969879  0.60121347     0.00800
H1070       H  0.56500741  0.60029383  0.48610450     0.04500
H1071       H  0.58304320  0.62822820  0.52391477     0.06400
H1072       H  0.53010390  0.62267417  0.51811825     0.07300
C1073       C  0.54773824  0.69200237  0.57879416    -0.22300
C1074       C  0.58181881  0.71480228  0.56895457     0.09700
C1075       C  0.61919894  0.70113600  0.57424685     0.10100
C1076       C  0.62174716  0.66409966  0.58753062    -0.17200
C1077       C  0.58781362  0.63871157  0.59422081    -0.27600
C1078       C  0.54983920  0.65476093  0.59251472     0.18400
C1079       C  0.57772749  0.75432825  0.55708953     0.12400
C1080       C  0.65659283  0.72594692  0.56635280    -0.12000
H1081       H  0.65105028  0.65592791  0.59373906     0.12600
C1082       C  0.51087358  0.63435390  0.60536638    -0.22800
H1083       H  0.51915743  0.70392907  0.57641808     0.08300
C1084       C  0.57483626  0.76521128  0.51717770     0.04600
C1085       C  0.57167545  0.80338952  0.50769978    -0.20100
C1086       C  0.57218981  0.83068882  0.53729674    -0.12300
C1087       C  0.57466801  0.81950046  0.57734179     0.13300
C1088       C  0.57737652  0.78138734  0.58669262    -0.22800
C1089       C  0.57550993  0.73657118  0.48479667    -0.05800
H1090       H  0.56941362  0.81206010  0.47711291     0.14900
C1091       C  0.57305771  0.84735450  0.61048837    -0.16000
H1092       H  0.57940271  0.77253698  0.61726761     0.09200
H1093       H  0.48535077  0.65206549  0.60150422     0.07000
H1094       H  0.51035190  0.62734125  0.63726741     0.08200
H1095       H  0.50491344  0.60925711  0.58740418     0.07300
H1096       H  0.65634268  0.75076548  0.58589700     0.02200
H1097       H  0.65849331  0.73567819  0.53499892     0.02700
H1098       H  0.68367373  0.71088996  0.57189729     0.06100
H1099       H  0.57298501  0.74978873  0.45520050     0.05100
H1100       H  0.55033723  0.71527641  0.48986050    -0.00600
H1101       H  0.60380141  0.72226286  0.48463750     0.00800
H1102       H  0.57324628  0.83331956  0.63996488     0.04500
H1103       H  0.54546320  0.86265453  0.60939237     0.06400
H1104       H  0.59925019  0.86761578  0.60782035     0.07300
C1105       C  0.70507791  0.57069753  0.61988494    -0.22300
C1106       C  0.72138551  0.57924933  0.58189287     0.09700
C1107       C  0.69622861  0.58974464  0.55234526     0.10100
C1108       C  0.65576627  0.59256743  0.56180780    -0.17200
C1109       C  0.63860155  0.58693234  0.60072019    -0.27600
C1110       C  0.66409691  0.57233419  0.62950194     0.18400
C1111       C  0.76370618  0.57214989  0.57222480     0.12400
C1112       C  0.71214844  0.59890406  0.51073565    -0.12000
H1113       H  0.63747875  0.60102157  0.53846490     0.12600
C1114       C  0.65082087  0.55386837  0.66876713    -0.22800
H1115       H  0.72435853  0.56027714  0.64174707     0.08300
C1116       C  0.79558791  0.59615096  0.58424707     0.04600
C1117       C  0.83486397  0.58801415  0.57315715    -0.20100
C1118       C  0.84309735  0.55629762  0.55035147    -0.12300
C1119       C  0.81069806  0.53192797  0.53915220     0.13300
C1120       C  0.77174281  0.54025636  0.55027713    -0.22800
C1121       C  0.78812589  0.63035961  0.60856288    -0.05800
H1122       H  0.85924947  0.60659264  0.58231369     0.14900
C1123       C  0.81640166  0.49624881  0.51665322    -0.16000
H1124       H  0.74707279  0.52163726  0.54179083     0.09200
H1125       H  0.65902154  0.57270839  0.69338309     0.07000
H1126       H  0.66616583  0.52741850  0.67251206     0.08200
H1127       H  0.61919305  0.54463054  0.67149546     0.07300
H1128       H  0.72448435  0.57371456  0.49705436     0.02200
H1129       H  0.73583500  0.62189184  0.51129780     0.02700
H1130       H  0.68867441  0.60829584  0.49163063     0.06100
H1131       H  0.81622033  0.64656580  0.61482811     0.05100
H1132       H  0.77288875  0.62167110  0.63727848    -0.00600
H1133       H  0.76917096  0.64914005  0.59240770     0.00800
H1134       H  0.78794790  0.47950254  0.51336179     0.04500
H1135       H  0.83631006  0.47832094  0.53266284     0.06400
H1136       H  0.82891135  0.50322953  0.48640323     0.07300
C1137       C  0.58879542  0.56561828  0.79600823    -0.22300
C1138       C  0.56056448  0.58676535  0.77868896     0.09700
C1139       C  0.52743754  0.59751241  0.80179560     0.10100
C1140       C  0.52227976  0.58506207  0.84144710    -0.17200
C1141       C  0.54934500  0.56172470  0.85842341    -0.27600
C1142       C  0.58389239  0.55304037  0.83544670     0.18400
C1143       C  0.56454061  0.59329544  0.73529594     0.12400
C1144       C  0.49755819  0.62191471  0.78447580    -0.12000
H1145       H  0.49624899  0.59259644  0.85878772     0.12600
C1146       C  0.61610746  0.53068202  0.85175616    -0.22800
H1147       H  0.61424178  0.55772901  0.77793821     0.08300
C1148       C  0.59294125  0.61940613  0.71770749     0.04600
C1149       C  0.59929994  0.62005047  0.67644422    -0.20100
C1150       C  0.57820224  0.59506619  0.65123492    -0.12300
C1151       C  0.54578314  0.57180800  0.66984477     0.13300
C1152       C  0.54133196  0.57026223  0.71134569    -0.22800
C1153       C  0.61730763  0.64597821  0.74256639    -0.05800
H1154       H  0.62293489  0.63902138  0.66389738     0.14900
C1155       C  0.51287183  0.54957207  0.64992813    -0.16000
H1156       H  0.51872080  0.55098102  0.72549884     0.09200
H1157       H  0.62645215  0.54354303  0.87948390     0.07000
H1158       H  0.64227163  0.53003637  0.83069437     0.08200
H1159       H  0.60492251  0.50107692  0.85730315     0.07300
H1160       H  0.48352928  0.60753134  0.75928662     0.02200
H1161       H  0.51262924  0.64898600  0.77384114     0.02700
H1162       H  0.47368517  0.62820942  0.80665189     0.06100
H1163       H  0.63772761  0.66530843  0.72406540     0.05100
H1164       H  0.63547058  0.62982656  0.76241806    -0.00600
H1165       H  0.59732493  0.66327608  0.76070566     0.00800
H1166       H  0.51615669  0.51897368  0.65423124     0.04500
H1167       H  0.51003393  0.55587060  0.61851506     0.06400
H1168       H  0.48374177  0.55626989  0.66383688     0.07300
loop_ 
_geom_bond_atom_site_label_1 
_geom_bond_atom_site_label_2 
_geom_bond_distance 
_geom_bond_site_symmetry_2 
_ccdc_geom_bond_type 
C1         C1054   1.567       .  S
C1         C1077   1.578       .  S
C1         C1109   1.589       .  S
C1         C1150   1.573       .  S
C2          C926   1.570       .  S
C2          C949   1.594       .  S
C2          C990   1.587       .  S
C2         C1013   1.577       .  S
C3          C798   1.594       .  S
C3          C821   1.602       .  S
C3          C853   1.585       .  S
C3          C894   1.583       .  S
C4          C702   1.567       .  S
C4          C734   1.583       .  S
C4          C757   1.594       .  S
C4         C1045   1.583       .  S
C5          C565   1.592       .  S
C5          C606   1.573       .  S
C5          C638   1.577       .  S
C5          C670   1.592       .  S
C6          C478   1.599       .  S
C6          C501   1.576       .  S
C6          C542   1.591       .  S
C6          C789   1.592       .  S
C7          C373   1.572       .  S
C7          C405   1.570       .  S
C7          C446   1.590       .  S
C7          C574   1.600       .  S
C8          C277   1.586       .  S
C8          C318   1.588       .  S
C8          C341   1.578       .  S
C8          C917   1.601       .  S
Zr9          O10   2.441   1_554  S
Zr9          O11   2.465       .  S
Zr9          O12   2.473       .  S
Zr9          O15   2.461   1_554  S
Zr9          O17   2.389       .  S
Zr9          O18   2.390   1_655  S
Zr9          O19   2.419   1_545  S
Zr9          O20   2.411   1_654  S
O10          H66   0.990       .  S
O10          H74   0.991       .  S
O11          C31   1.288       .  A
O12          C33   1.290   1_545  A
O13         Zr23   2.408       .  S
O13          C32   1.279       .  A
O14         Zr22   2.437       .  S
O14          C33   1.286       .  A
O15          C32   1.290   1_655  A
O16         Zr24   2.414       .  S
O16          C31   1.281   1_455  A
O17         Zr22   2.400   1_545  S
O17         Zr24   2.385   1_655  S
O18         Zr23   2.396   1_554  S
O18         Zr24   2.376       .  S
O18          H53   0.966   1_554  S
O19         Zr22   2.407       .  S
O19         Zr39   2.378   1_654  S
O19          H56   0.962       .  S
O20         Zr23   2.389       .  S
O20         Zr39   2.391   1_545  S
Zr21         O46   2.442       .  S
Zr21         O40   2.463       .  S
Zr21         O48   2.452       .  S
Zr21         O36   2.453       .  S
Zr21         O27   2.409   1_565  S
Zr21         O28   2.419   1_565  S
Zr21         O29   2.382       .  S
Zr21         O30   2.384   1_554  S
Zr22         O41   2.436       .  S
Zr22         O34   2.434   1_565  S
Zr22         O35   2.432   1_655  S
Zr22         O28   2.402   1_665  S
Zr22         O29   2.401   1_655  S
Zr23         O25   2.436       .  S
Zr23         O47   2.438       .  S
Zr23         O49   2.420       .  S
Zr23         O27   2.385   1_556  S
Zr23         O30   2.395   1_545  S
Zr24         O50   2.437       .  S
Zr24         O51   2.436       .  S
Zr24         O26   2.437       .  S
Zr24         O27   2.395       .  S
Zr24         O28   2.387       .  S
O25          H62   0.990       .  S
O26          H57   0.990       .  S
O26          H71   0.990       .  S
O28          H54   0.964       .  S
O29         Zr39   2.382   1_554  S
O30         Zr39   2.379       .  S
O30          H55   0.966       .  S
C31         C533   1.505       .  S
C32        C1022   1.499       .  S
C33         C661   1.485       .  S
O34          H70   0.990   1_545  S
O35          C37   1.284       .  A
O36          C37   1.286       .  A
C37         C350   1.479       .  S
O38         Zr39   2.439   1_655  S
O38          H67   0.990       .  S
Zr39         O42   2.438   1_455  S
Zr39         O43   2.440       .  S
Zr39         O44   2.409       .  S
O40          C45   1.287       .  A
O41          H58   0.990       .  S
O41          H73   0.989       .  S
O42          H59   0.990   1_556  S
O43          H63   0.990       .  S
O43          H72   0.990       .  S
O44          C45   1.279   1_556  A
C45         C885   1.481       .  S
O46          H65   0.991       .  S
O46          H69   0.991       .  S
O47          H61   0.990       .  S
O47          H68   0.990       .  S
O48          C52   1.287   1_564  A
O49          C52   1.282       .  A
O50          H60   0.990       .  S
O51          H64   0.990       .  S
C52         C437   1.475       .  S
Zr75         O76   2.440       .  S
Zr75         O77   2.440       .  S
Zr75         O78   2.442       .  S
Zr75         O81   2.441       .  S
Zr75         O83   2.387       .  S
Zr75         O84   2.385   1_545  S
Zr75         O85   2.404       .  S
Zr75         O86   2.399       .  S
O76         H132   0.990       .  S
O76         H140   0.991       .  S
O77          C97   1.285       .  A
O78          C99   1.286       .  A
O79         Zr89   2.431   1_545  S
O79          C98   1.283       .  A
O80         Zr88   2.419       .  S
O80          C99   1.281       .  A
O81          C98   1.285       .  A
O82         Zr90   2.411   1_545  S
O82          C97   1.280       .  A
O83         Zr88   2.395       .  S
O83         Zr90   2.377   1_545  S
O84         Zr89   2.387       .  S
O84         Zr90   2.373       .  S
O84         H119   0.966   1_565  S
O85         Zr88   2.394       .  S
O85        Zr105   2.385       .  S
O85         H122   0.965       .  S
O86         Zr89   2.389   1_545  S
O86        Zr105   2.386       .  S
Zr87        O112   2.441       .  S
Zr87        O106   2.460       .  S
Zr87        O114   2.445       .  S
Zr87        O102   2.474       .  S
Zr87         O93   2.407       .  S
Zr87         O94   2.417       .  S
Zr87         O95   2.380       .  S
Zr87         O96   2.394       .  S
Zr88        O107   2.434       .  S
Zr88        O100   2.435       .  S
Zr88        O101   2.420   1_545  S
Zr88         O94   2.399   1_545  S
Zr88         O95   2.391   1_545  S
Zr89         O91   2.436       .  S
Zr89        O113   2.440       .  S
Zr89        O115   2.423       .  S
Zr89         O93   2.387       .  S
Zr89         O96   2.398       .  S
Zr90        O116   2.436       .  S
Zr90        O117   2.436       .  S
Zr90         O92   2.436       .  S
Zr90         O93   2.381       .  S
Zr90         O94   2.391       .  S
O91         H128   0.990       .  S
O92         H123   0.990       .  S
O92         H137   0.990   1_565  S
O94         H120   0.965       .  S
O95        Zr105   2.386   1_565  S
O96        Zr105   2.386   1_565  S
O96         H121   0.966       .  S
C97         C414   1.472       .  S
C98         C981   1.476       .  S
C99         C693   1.489       .  S
O100        H136   0.990       .  S
O101        C103   1.282       .  A
O102        C103   1.290       .  A
C103        C286   1.484       .  S
O104       Zr105   2.441       .  S
O104        H133   0.990       .  S
Zr105       O108   2.438       .  S
Zr105       O109   2.439       .  S
Zr105       O110   2.394   1_545  S
O106        C111   1.288       .  A
O107        H124   0.990       .  S
O107        H139   0.990       .  S
O108        H125   0.990       .  S
O109        H129   0.989       .  S
O109        H138   0.989   1_545  S
O110        C111   1.276       .  A
C111        C597   1.487       .  S
O112        H131   0.991       .  S
O112        H135   0.990       .  S
O113        H127   0.990       .  S
O113        H134   0.989       .  S
O114        C118   1.286       .  A
O115        C118   1.283       .  A
O116        H126   0.990       .  S
O117        H130   0.990       .  S
C118       C1086   1.474       .  S
Zr141       O142   2.442       .  S
Zr141       O143   2.451       .  S
Zr141       O144   2.453   1_556  S
Zr141       O147   2.463       .  S
Zr141       O149   2.385       .  S
Zr141       O150   2.386       .  S
Zr141       O151   2.419   1_556  S
Zr141       O152   2.398   1_556  S
O142        H198   0.990       .  S
O142        H206   0.990       .  S
O143        C163   1.286       .  A
O144        C165   1.287       .  A
O145       Zr155   2.417   1_556  S
O145        C164   1.282       .  A
O146       Zr154   2.432       .  S
O146        C165   1.285       .  A
O147        C164   1.290       .  A
O148       Zr156   2.410       .  S
O148        C163   1.278       .  A
O149       Zr154   2.399   1_556  S
O149       Zr156   2.382       .  S
O150       Zr155   2.393   1_556  S
O150       Zr156   2.378       .  S
O150        H185   0.966       .  S
O151       Zr154   2.404       .  S
O151       Zr171   2.387       .  S
O151        H188   0.965       .  S
O152       Zr155   2.387       .  S
O152       Zr171   2.384       .  S
Zr153       O178   2.440       .  S
Zr153       O172   2.459       .  S
Zr153       O180   2.448       .  S
Zr153       O168   2.469       .  S
Zr153       O159   2.411       .  S
Zr153       O160   2.418       .  S
Zr153       O161   2.385       .  S
Zr153       O162   2.388       .  S
Zr154       O173   2.435       .  S
Zr154       O166   2.435       .  S
Zr154       O167   2.440       .  S
Zr154       O160   2.397       .  S
Zr154       O161   2.397       .  S
Zr155       O157   2.435       .  S
Zr155       O179   2.436   1_554  S
Zr155       O181   2.416       .  S
Zr155       O159   2.386       .  S
Zr155       O162   2.396       .  S
Zr156       O182   2.438       .  S
Zr156       O183   2.437       .  S
Zr156       O158   2.440       .  S
Zr156       O159   2.389   1_556  S
Zr156       O160   2.386   1_556  S
O157        H194   0.990       .  S
O158        H189   0.990       .  S
O158        H203   0.990       .  S
O160        H186   0.963       .  S
O161       Zr171   2.388       .  S
O162       Zr171   2.380       .  S
O162        H187   0.966       .  S
C163       C1141   1.495       .  S
C164        C830   1.484       .  S
C165        C629   1.482       .  S
O166        H202   0.990   1_554  S
O167        C169   1.288       .  A
O168        C169   1.290       .  A
C169        C510   1.504       .  S
O170       Zr171   2.440       .  S
O170        H199   0.990       .  S
Zr171       O174   2.438       .  S
Zr171       O175   2.440       .  S
Zr171       O176   2.403       .  S
O172        C177   1.286       .  A
O173        H190   0.990       .  S
O173        H205   0.990       .  S
O174        H191   0.990       .  S
O175        H195   0.990       .  S
O175        H204   0.989       .  S
O176        C177   1.277       .  A
C177        C766   1.486       .  S
O178        H197   0.990       .  S
O178        H201   0.990       .  S
O179        H193   0.990       .  S
O179        H200   0.990       .  S
O180        C184   1.286       .  A
O181        C184   1.280       .  A
O182        H192   0.990       .  S
O183        H196   0.990       .  S
C184        C382   1.493       .  S
Zr207       O208   2.443       .  S
Zr207       O209   2.457       .  S
Zr207       O210   2.455       .  S
Zr207       O213   2.454       .  S
Zr207       O215   2.381       .  S
Zr207       O216   2.383   1_455  S
Zr207       O217   2.413       .  S
Zr207       O218   2.408       .  S
O208        H264   0.990       .  S
O208        H272   0.991       .  S
O209        C229   1.287       .  A
O210        C231   1.288       .  A
O211       Zr221   2.432       .  S
O211        C230   1.285       .  A
O212       Zr220   2.427       .  S
O212        C231   1.282       .  A
O213        C230   1.288   1_455  A
O214       Zr222   2.401       .  S
O214        C229   1.279   1_655  A
O215       Zr220   2.394       .  S
O215       Zr222   2.381   1_455  S
O216       Zr221   2.399       .  S
O216       Zr222   2.376       .  S
O216        H251   0.965       .  S
O217       Zr220   2.403       .  S
O217       Zr237   2.387       .  S
O217        H254   0.965       .  S
O218       Zr221   2.390   1_455  S
O218       Zr237   2.391       .  S
Zr219       O244   2.441       .  S
Zr219       O238   2.459   1_655  S
Zr219       O246   2.457       .  S
Zr219       O234   2.471   1_655  S
Zr219       O225   2.406       .  S
Zr219       O226   2.413   1_655  S
Zr219       O227   2.383   1_655  S
Zr219       O228   2.394       .  S
Zr220       O239   2.438       .  S
Zr220       O232   2.434       .  S
Zr220       O233   2.426       .  S
Zr220       O226   2.401       .  S
Zr220       O227   2.394       .  S
Zr221       O223   2.434       .  S
Zr221       O245   2.438       .  S
Zr221       O247   2.429       .  S
Zr221       O225   2.387       .  S
Zr221       O228   2.402       .  S
Zr222       O248   2.435       .  S
Zr222       O249   2.436       .  S
Zr222       O224   2.437       .  S
Zr222       O225   2.383       .  S
Zr222       O226   2.386   1_655  S
O223        H260   0.990       .  S
O224        H255   0.990       .  S
O224        H269   0.990   1_655  S
O226        H252   0.964       .  S
O227       Zr237   2.383       .  S
O228       Zr237   2.382   1_655  S
O228        H253   0.966       .  S
C229        C958   1.487       .  S
C230        C469   1.488       .  S
C231        C725   1.497       .  S
O232        H268   0.990       .  S
O233        C235   1.283       .  A
O234        C235   1.289       .  A
C235        C862   1.480       .  S
O236       Zr237   2.440       .  S
O236        H265   0.991       .  S
Zr237       O240   2.437       .  S
Zr237       O241   2.440       .  S
Zr237       O242   2.403       .  S
O238        C243   1.287       .  A
O239        H256   0.990       .  S
O239        H271   0.990       .  S
O240        H257   0.990       .  S
O241        H261   0.990       .  S
O241        H270   0.989       .  S
O242        C243   1.278       .  A
C243        C309   1.480       .  S
O244        H263   0.991       .  S
O244        H267   0.990       .  S
O245        H259   0.990       .  S
O245        H266   0.989       .  S
O246        C250   1.289       .  A
O247        C250   1.284       .  A
O248        H258   0.990       .  S
O249        H262   0.990       .  S
C250       C1118   1.497       .  S
C273        C274   1.395       .  A
C273        C278   1.407       .  A
C273        H283   1.085       .  S
C274        C279   1.486       .  S
C274        C275   1.403       .  A
C275        C280   1.508       .  S
C275        C276   1.404       .  A
C276        C277   1.425       .  A
C276        H281   1.076       .  S
C277        C278   1.444       .  A
C278        C282   1.512       .  S
C279        C284   1.413       .  A
C279        C288   1.398       .  A
C280        H296   1.110       .  S
C280        H297   1.109       .  S
C280        H298   1.111       .  S
C282        H293   1.110       .  S
C282        H294   1.111       .  S
C282        H295   1.098       .  S
C284        C289   1.506       .  S
C284        C285   1.411       .  A
C285        C286   1.406       .  A
C285        H290   1.084       .  S
C286        C287   1.420       .  A
C287        C291   1.509       .  S
C287        C288   1.401       .  A
C288        H292   1.085       .  S
C289        H299   1.111       .  S
C289        H300   1.110       .  S
C289        H301   1.109       .  S
C291        H302   1.110       .  S
C291        H303   1.106       .  S
C291        H304   1.111       .  S
C305        C306   1.400       .  A
C305        C310   1.401       .  A
C305        H315   1.085       .  S
C306        C311   1.486       .  S
C306        C307   1.414       .  A
C307        C312   1.506   1_455  S
C307        C308   1.409       .  A
C308        C309   1.404       .  A
C308        H313   1.084   1_455  S
C309        C310   1.417       .  A
C310        C314   1.508       .  S
C311        C316   1.400       .  A
C311        C320   1.393       .  A
C312        H328   1.109       .  S
C312        H329   1.111       .  S
C312        H330   1.111       .  S
C314        H325   1.111       .  S
C314        H326   1.110       .  S
C314        H327   1.109       .  S
C316        C321   1.506       .  S
C316        C317   1.403       .  A
C317        C318   1.426       .  A
C317        H322   1.083       .  S
C318        C319   1.451       .  A
C319        C323   1.519       .  S
C319        C320   1.409       .  A
C320        H324   1.085       .  S
C321        H331   1.111       .  S
C321        H332   1.110       .  S
C321        H333   1.111       .  S
C323        H334   1.111       .  S
C323        H335   1.102       .  S
C323        H336   1.103       .  S
C337        C338   1.393       .  A
C337        C342   1.407       .  A
C337        H347   1.084       .  S
C338        C343   1.483       .  S
C338        C339   1.402       .  A
C339        C344   1.508       .  S
C339        C340   1.402       .  A
C340        C341   1.422       .  A
C340        H345   1.074       .  S
C341        C342   1.445       .  A
C342        C346   1.515       .  S
C343        C348   1.410       .  A
C343        C352   1.403       .  A
C344        H360   1.110       .  S
C344        H361   1.110       .  S
C344        H362   1.111       .  S
C346        H357   1.107       .  S
C346        H358   1.111       .  S
C346        H359   1.107       .  S
C348        C353   1.507       .  S
C348        C349   1.402       .  A
C349        C350   1.404       .  A
C349        H354   1.084       .  S
C350        C351   1.416       .  A
C351        C355   1.507       .  S
C351        C352   1.406       .  A
C352        H356   1.084       .  S
C353        H363   1.111       .  S
C353        H364   1.110       .  S
C353        H365   1.111       .  S
C355        H366   1.111       .  S
C355        H367   1.108       .  S
C355        H368   1.110   1_455  S
C369        C370   1.392       .  A
C369        C374   1.403       .  A
C369        H379   1.086       .  S
C370        C375   1.477   1_556  S
C370        C371   1.401   1_556  A
C371        C376   1.505       .  S
C371        C372   1.403   1_554  A
C372        C373   1.422       .  A
C372        H377   1.083   1_556  S
C373        C374   1.446       .  A
C374        C378   1.516       .  S
C375        C380   1.407       .  A
C375        C384   1.397       .  A
C376        H392   1.110       .  S
C376        H393   1.110       .  S
C376        H394   1.110       .  S
C378        H389   1.108       .  S
C378        H390   1.112       .  S
C378        H391   1.096       .  S
C380        C385   1.507       .  S
C380        C381   1.402       .  A
C381        C382   1.411       .  A
C381        H386   1.083       .  S
C382        C383   1.425       .  A
C383        C387   1.509       .  S
C383        C384   1.403       .  A
C384        H388   1.084   1_554  S
C385        H395   1.111       .  S
C385        H396   1.110   1_554  S
C385        H397   1.110       .  S
C387        H398   1.109   1_554  S
C387        H399   1.110       .  S
C387        H400   1.111       .  S
C401        C402   1.393       .  A
C401        C406   1.405       .  A
C401        H411   1.085       .  S
C402        C407   1.477       .  S
C402        C403   1.403       .  A
C403        C408   1.510       .  S
C403        C404   1.399       .  A
C404        C405   1.422       .  A
C404        H409   1.077       .  S
C405        C406   1.440       .  A
C406        C410   1.510       .  S
C407        C412   1.411       .  A
C407        C416   1.398       .  A
C408        H424   1.110       .  S
C408        H425   1.110       .  S
C408        H426   1.111       .  S
C410        H421   1.110       .  S
C410        H422   1.110       .  S
C410        H423   1.098       .  S
C412        C417   1.506       .  S
C412        C413   1.405       .  A
C413        C414   1.403       .  A
C413        H418   1.084       .  S
C414        C415   1.416       .  A
C415        C419   1.508       .  S
C415        C416   1.399       .  A
C416        H420   1.085       .  S
C417        H427   1.111       .  S
C417        H428   1.110       .  S
C417        H429   1.110       .  S
C419        H430   1.111       .  S
C419        H431   1.108   1_545  S
C419        H432   1.110   1_545  S
C433        C434   1.402       .  A
C433        C438   1.404       .  A
C433        H443   1.084       .  S
C434        C439   1.482       .  S
C434        C435   1.412   1_556  A
C435        C440   1.508       .  S
C435        C436   1.404       .  A
C436        C437   1.403   1_554  A
C436        H441   1.084       .  S
C437        C438   1.416       .  A
C438        C442   1.508   1_545  S
C439        C444   1.401       .  A
C439        C448   1.392       .  A
C440        H456   1.110       .  S
C440        H457   1.108       .  S
C440        H458   1.111       .  S
C442        H453   1.110       .  S
C442        H454   1.110       .  S
C442        H455   1.108       .  S
C444        C449   1.509   1_545  S
C444        C445   1.403       .  A
C445        C446   1.425       .  A
C445        H450   1.076       .  S
C446        C447   1.445       .  A
C447        C451   1.513       .  S
C447        C448   1.406       .  A
C448        H452   1.085       .  S
C449        H459   1.111   1_556  S
C449        H460   1.110       .  S
C449        H461   1.109   1_566  S
C451        H462   1.111       .  S
C451        H463   1.102       .  S
C451        H464   1.104       .  S
C465        C466   1.402       .  A
C465        C470   1.406       .  A
C465        H475   1.085       .  S
C466        C471   1.489       .  S
C466        C467   1.411   1_655  A
C467        C472   1.506       .  S
C467        C468   1.408       .  A
C468        C469   1.406   1_455  A
C468        H473   1.084       .  S
C469        C470   1.419       .  A
C470        C474   1.507       .  S
C471        C476   1.403       .  A
C471        C480   1.394       .  A
C472        H488   1.110       .  S
C472        H489   1.109       .  S
C472        H490   1.111       .  S
C474        H485   1.111       .  S
C474        H486   1.110       .  S
C474        H487   1.106       .  S
C476        C481   1.507       .  S
C476        C477   1.405       .  A
C477        C478   1.425       .  A
C477        H482   1.077       .  S
C478        C479   1.444       .  A
C479        C483   1.511       .  S
C479        C480   1.410       .  A
C480        H484   1.084       .  S
C481        H491   1.111       .  S
C481        H492   1.110       .  S
C481        H493   1.109   1_655  S
C483        H494   1.111       .  S
C483        H495   1.099       .  S
C483        H496   1.106       .  S
C497        C498   1.397       .  A
C497        C502   1.411       .  A
C497        H507   1.084       .  S
C498        C503   1.489       .  S
C498        C499   1.403       .  A
C499        C504   1.508       .  S
C499        C500   1.403       .  A
C500        C501   1.423       .  A
C500        H505   1.075       .  S
C501        C502   1.440       .  A
C502        C506   1.513       .  S
C503        C508   1.408       .  A
C503        C512   1.401       .  A
C504        H520   1.110       .  S
C504        H521   1.110       .  S
C504        H522   1.111       .  S
C506        H517   1.111       .  S
C506        H518   1.108       .  S
C506        H519   1.107       .  S
C508        C513   1.508       .  S
C508        C509   1.404       .  A
C509        C510   1.412       .  A
C509        H514   1.083       .  S
C510        C511   1.424       .  A
C511        C515   1.504       .  S
C511        C512   1.411       .  A
C512        H516   1.084       .  S
C513        H523   1.111       .  S
C513        H524   1.110       .  S
C513        H525   1.110       .  S
C515        H526   1.106       .  S
C515        H527   1.110       .  S
C515        H528   1.111       .  S
C529        C530   1.405       .  A
C529        C534   1.413       .  A
C529        H539   1.084       .  S
C530        C535   1.497       .  S
C530        C531   1.410       .  A
C531        C536   1.508       .  S
C531        C532   1.405       .  A
C532        C533   1.412       .  A
C532        H537   1.084   1_655  S
C533        C534   1.422       .  A
C534        C538   1.506   1_554  S
C535        C540   1.406       .  A
C535        C544   1.397       .  A
C536        H552   1.110       .  S
C536        H553   1.110   1_655  S
C536        H554   1.111   1_655  S
C538        H549   1.111       .  S
C538        H550   1.109   1_556  S
C538        H551   1.110       .  S
C540        C545   1.507       .  S
C540        C541   1.408       .  A
C541        C542   1.423       .  A
C541        H546   1.077       .  S
C542        C543   1.444       .  A
C543        C547   1.514       .  S
C543        C544   1.411       .  A
C544        H548   1.084       .  S
C545        H555   1.111   1_655  S
C545        H556   1.109       .  S
C545        H557   1.110   1_655  S
C547        H558   1.107       .  S
C547        H559   1.105       .  S
C547        H560   1.111       .  S
C561        C562   1.401       .  A
C561        C566   1.407       .  A
C561        H571   1.083   1_554  S
C562        C567   1.507   1_565  S
C562        C563   1.414   1_565  A
C563        C568   1.509       .  S
C563        C564   1.404   1_545  A
C564        C565   1.423       .  A
C564        H569   1.079       .  S
C565        C566   1.442       .  A
C566        C570   1.513       .  S
C567        C572   1.413   1_554  A
C567        C576   1.402       .  A
C568        H584   1.110       .  S
C568        H585   1.107       .  S
C568        H586   1.111       .  S
C570        H581   1.112   1_554  S
C570        H582   1.104       .  S
C570        H583   1.106       .  S
C572        C577   1.510   1_545  S
C572        C573   1.399       .  A
C573        C574   1.426       .  A
C573        H578   1.081       .  S
C574        C575   1.442   1_556  A
C575        C579   1.509       .  S
C575        C576   1.410       .  A
C576        H580   1.083       .  S
C577        H587   1.111   1_565  S
C577        H588   1.110       .  S
C577        H589   1.108       .  S
C579        H590   1.112       .  S
C579        H591   1.110       .  S
C579        H592   1.102   1_554  S
C593        C594   1.397       .  A
C593        C598   1.398       .  A
C593        H603   1.085       .  S
C594        C599   1.483       .  S
C594        C595   1.412       .  A
C595        C600   1.506       .  S
C595        C596   1.409       .  A
C596        C597   1.408       .  A
C596        H601   1.084       .  S
C597        C598   1.421       .  A
C598        C602   1.509       .  S
C599        C604   1.407       .  A
C599        C608   1.394       .  A
C600        H616   1.110       .  S
C600        H617   1.107       .  S
C600        H618   1.111       .  S
C602        H613   1.111       .  S
C602        H614   1.111       .  S
C602        H615   1.108       .  S
C604        C609   1.509       .  S
C604        C605   1.404       .  A
C605        C606   1.421       .  A
C605        H610   1.076       .  S
C606        C607   1.442       .  A
C607        C611   1.513       .  S
C607        C608   1.406       .  A
C608        H612   1.085       .  S
C609        H619   1.111       .  S
C609        H620   1.110       .  S
C609        H621   1.106       .  S
C611        H622   1.111       .  S
C611        H623   1.107       .  S
C611        H624   1.107       .  S
C625        C626   1.403       .  A
C625        C630   1.409   1_554  A
C625        H635   1.084   1_554  S
C626        C631   1.485       .  S
C626        C627   1.410       .  A
C627        C632   1.508       .  S
C627        C628   1.401       .  A
C628        C629   1.405       .  A
C628        H633   1.084       .  S
C629        C630   1.418   1_554  A
C630        C634   1.508       .  S
C631        C636   1.403       .  A
C631        C640   1.394       .  A
C632        H648   1.110       .  S
C632        H649   1.110       .  S
C632        H650   1.111       .  S
C634        H645   1.110       .  S
C634        H646   1.110       .  S
C634        H647   1.107       .  S
C636        C641   1.508       .  S
C636        C637   1.404       .  A
C637        C638   1.425       .  A
C637        H642   1.075       .  S
C638        C639   1.441       .  A
C639        C643   1.514       .  S
C639        C640   1.407       .  A
C640        H644   1.085       .  S
C641        H651   1.111       .  S
C641        H652   1.110       .  S
C641        H653   1.110       .  S
C643        H654   1.111       .  S
C643        H655   1.105       .  S
C643        H656   1.108       .  S
C657        C658   1.397       .  A
C657        C662   1.401       .  A
C657        H667   1.084       .  S
C658        C663   1.489       .  S
C658        C659   1.415   1_565  A
C659        C664   1.505       .  S
C659        C660   1.412       .  A
C660        C661   1.405   1_545  A
C660        H665   1.084       .  S
C661        C662   1.417       .  A
C662        C666   1.506       .  S
C663        C668   1.403       .  A
C663        C672   1.392       .  A
C664        H680   1.110       .  S
C664        H681   1.111       .  S
C664        H682   1.111       .  S
C666        H677   1.110       .  S
C666        H678   1.111       .  S
C666        H679   1.105       .  S
C668        C673   1.506       .  S
C668        C669   1.405       .  A
C669        C670   1.423       .  A
C669        H674   1.083       .  S
C670        C671   1.451       .  A
C671        C675   1.515       .  S
C671        C672   1.410       .  A
C672        H676   1.085       .  S
C673        H683   1.110   1_554  S
C673        H684   1.109   1_554  S
C673        H685   1.111   1_554  S
C675        H686   1.102       .  S
C675        H687   1.104       .  S
C675        H688   1.111       .  S
C689        C690   1.397       .  A
C689        C694   1.402       .  A
C689        H699   1.085       .  S
C690        C695   1.474       .  S
C690        C691   1.406       .  A
C691        C696   1.507       .  S
C691        C692   1.402       .  A
C692        C693   1.410       .  A
C692        H697   1.083       .  S
C693        C694   1.423       .  A
C694        C698   1.509       .  S
C695        C700   1.402       .  A
C695        C704   1.390       .  A
C696        H712   1.110       .  S
C696        H713   1.110       .  S
C696        H714   1.111       .  S
C698        H709   1.109       .  S
C698        H710   1.111       .  S
C698        H711   1.110       .  S
C700        C705   1.508       .  S
C700        C701   1.399       .  A
C701        C702   1.419       .  A
C701        H706   1.076       .  S
C702        C703   1.442       .  A
C703        C707   1.513       .  S
C703        C704   1.405       .  A
C704        H708   1.084       .  S
C705        H715   1.111       .  S
C705        H716   1.110       .  S
C705        H717   1.110       .  S
C707        H718   1.111       .  S
C707        H719   1.106       .  S
C707        H720   1.108       .  S
C721        C722   1.398       .  A
C721        C726   1.405       .  A
C721        H731   1.084       .  S
C722        C727   1.484       .  S
C722        C723   1.410       .  A
C723        C728   1.507       .  S
C723        C724   1.406       .  A
C724        C725   1.411       .  A
C724        H729   1.083       .  S
C725        C726   1.424       .  A
C726        C730   1.509       .  S
C727        C732   1.402       .  A
C727        C736   1.391       .  A
C728        H744   1.110       .  S
C728        H745   1.108       .  S
C728        H746   1.111       .  S
C730        H741   1.109       .  S
C730        H742   1.111       .  S
C730        H743   1.111       .  S
C732        C737   1.508       .  S
C732        C733   1.402       .  A
C733        C734   1.424       .  A
C733        H738   1.083       .  S
C734        C735   1.450       .  A
C735        C739   1.515       .  S
C735        C736   1.410       .  A
C736        H740   1.085       .  S
C737        H747   1.111       .  S
C737        H748   1.110       .  S
C737        H749   1.108       .  S
C739        H750   1.104       .  S
C739        H751   1.099       .  S
C739        H752   1.111       .  S
C753        C754   1.394       .  A
C753        C758   1.410       .  A
C753        H763   1.084       .  S
C754        C759   1.484       .  S
C754        C755   1.402       .  A
C755        C760   1.510       .  S
C755        C756   1.401       .  A
C756        C757   1.425       .  A
C756        H761   1.078       .  S
C757        C758   1.444       .  A
C758        C762   1.511       .  S
C759        C764   1.412       .  A
C759        C768   1.398       .  A
C760        H776   1.110       .  S
C760        H777   1.108       .  S
C760        H778   1.111       .  S
C762        H773   1.111       .  S
C762        H774   1.104       .  S
C762        H775   1.099       .  S
C764        C769   1.507       .  S
C764        C765   1.407       .  A
C765        C766   1.406       .  A
C765        H770   1.084       .  S
C766        C767   1.420       .  A
C767        C771   1.509       .  S
C767        C768   1.403       .  A
C768        H772   1.084       .  S
C769        H779   1.111       .  S
C769        H780   1.110       .  S
C769        H781   1.109       .  S
C771        H782   1.111       .  S
C771        H783   1.111       .  S
C771        H784   1.108       .  S
C785        C786   1.393   1_655  A
C785        C790   1.411       .  A
C785        H795   1.085       .  S
C786        C791   1.493       .  S
C786        C787   1.404       .  A
C787        C792   1.508       .  S
C787        C788   1.407   1_455  A
C788        C789   1.427       .  A
C788        H793   1.083   1_655  S
C789        C790   1.452       .  A
C790        C794   1.515       .  S
C791        C796   1.403   1_554  A
C791        C800   1.396       .  A
C792        H808   1.110       .  S
C792        H809   1.106       .  S
C792        H810   1.111       .  S
C794        H805   1.104       .  S
C794        H806   1.111       .  S
C794        H807   1.101       .  S
C796        C801   1.509       .  S
C796        C797   1.404       .  A
C797        C798   1.429       .  A
C797        H802   1.083       .  S
C798        C799   1.447   1_556  A
C799        C803   1.512       .  S
C799        C800   1.413       .  A
C800        H804   1.085       .  S
C801        H811   1.111       .  S
C801        H812   1.110       .  S
C801        H813   1.106       .  S
C803        H814   1.103   1_554  S
C803        H815   1.107       .  S
C803        H816   1.111       .  S
C817        C818   1.393       .  A
C817        C822   1.410       .  A
C817        H827   1.084       .  S
C818        C823   1.487       .  S
C818        C819   1.402       .  A
C819        C824   1.510   1_556  S
C819        C820   1.405       .  A
C820        C821   1.428       .  A
C820        H825   1.076       .  S
C821        C822   1.446       .  A
C822        C826   1.512       .  S
C823        C828   1.411       .  A
C823        C832   1.402       .  A
C824        H840   1.110       .  S
C824        H841   1.109       .  S
C824        H842   1.111       .  S
C826        H837   1.111       .  S
C826        H838   1.105       .  S
C826        H839   1.099       .  S
C828        C833   1.507       .  S
C828        C829   1.405       .  A
C829        C830   1.406       .  A
C829        H834   1.084       .  S
C830        C831   1.416       .  A
C831        C835   1.507   1_556  S
C831        C832   1.407       .  A
C832        H836   1.084   1_556  S
C833        H843   1.111       .  S
C833        H844   1.110       .  S
C833        H845   1.109       .  S
C835        H846   1.109       .  S
C835        H847   1.111       .  S
C835        H848   1.111       .  S
C849        C850   1.396       .  A
C849        C854   1.412       .  A
C849        H859   1.084       .  S
C850        C855   1.490       .  S
C850        C851   1.404       .  A
C851        C856   1.507       .  S
C851        C852   1.404       .  A
C852        C853   1.421       .  A
C852        H857   1.076       .  S
C853        C854   1.442       .  A
C854        C858   1.512       .  S
C855        C860   1.411       .  A
C855        C864   1.405       .  A
C856        H872   1.110       .  S
C856        H873   1.110       .  S
C856        H874   1.111       .  S
C858        H869   1.107       .  S
C858        H870   1.111   1_455  S
C858        H871   1.102       .  S
C860        C865   1.507       .  S
C860        C861   1.406       .  A
C861        C862   1.405       .  A
C861        H866   1.084       .  S
C862        C863   1.414       .  A
C863        C867   1.507       .  S
C863        C864   1.409       .  A
C864        H868   1.084       .  S
C865        H875   1.111       .  S
C865        H876   1.110       .  S
C865        H877   1.110       .  S
C867        H878   1.110       .  S
C867        H879   1.109       .  S
C867        H880   1.110       .  S
C881        C882   1.401   1_554  A
C881        C886   1.405       .  A
C881        H891   1.085       .  S
C882        C887   1.489       .  S
C882        C883   1.414       .  A
C883        C888   1.506       .  S
C883        C884   1.409       .  A
C884        C885   1.404   1_556  A
C884        H889   1.084       .  S
C885        C886   1.417       .  A
C886        C890   1.508       .  S
C887        C892   1.401   1_556  A
C887        C896   1.391       .  A
C888        H904   1.110       .  S
C888        H905   1.110       .  S
C888        H906   1.111       .  S
C890        H901   1.111       .  S
C890        H902   1.110   1_455  S
C890        H903   1.109       .  S
C892        C897   1.506       .  S
C892        C893   1.407   1_554  A
C893        C894   1.425       .  A
C893        H898   1.083   1_556  S
C894        C895   1.452       .  A
C895        C899   1.515       .  S
C895        C896   1.409       .  A
C896        H900   1.085       .  S
C897        H907   1.111       .  S
C897        H908   1.110       .  S
C897        H909   1.110       .  S
C899        H910   1.104       .  S
C899        H911   1.100       .  S
C899        H912   1.111       .  S
C913        C914   1.394       .  A
C913        C918   1.407       .  A
C913        H923   1.085   1_455  S
C914        C919   1.489   1_565  S
C914        C915   1.404       .  A
C915        C920   1.510   1_565  S
C915        C916   1.403       .  A
C916        C917   1.426       .  A
C916        H921   1.074       .  S
C917        C918   1.444       .  A
C918        C922   1.506       .  S
C919        C924   1.405       .  A
C919        C928   1.396       .  A
C920        H936   1.108       .  S
C920        H937   1.110       .  S
C920        H938   1.111       .  S
C922        H933   1.111   1_455  S
C922        H934   1.111       .  S
C922        H935   1.088       .  S
C924        C929   1.507       .  S
C924        C925   1.402   1_455  A
C925        C926   1.423       .  A
C925        H930   1.083       .  S
C926        C927   1.445   1_655  A
C927        C931   1.514       .  S
C927        C928   1.407       .  A
C928        H932   1.085   1_545  S
C929        H939   1.111   1_455  S
C929        H940   1.109   1_455  S
C929        H941   1.110       .  S
C931        H942   1.110       .  S
C931        H943   1.094       .  S
C931        H944   1.112       .  S
C945        C946   1.395   1_455  A
C945        C950   1.409       .  A
C945        H955   1.084       .  S
C946        C951   1.487       .  S
C946        C947   1.404       .  A
C947        C952   1.509       .  S
C947        C948   1.400       .  A
C948        C949   1.423       .  A
C948        H953   1.078       .  S
C949        C950   1.442   1_655  A
C950        C954   1.510       .  S
C951        C956   1.410   1_655  A
C951        C960   1.404   1_655  A
C952        H968   1.109       .  S
C952        H969   1.110       .  S
C952        H970   1.111       .  S
C954        H965   1.111       .  S
C954        H966   1.105       .  S
C954        H967   1.101       .  S
C956        C961   1.509   1_455  S
C956        C957   1.400       .  A
C957        C958   1.408       .  A
C957        H962   1.084       .  S
C958        C959   1.419       .  A
C959        C963   1.508       .  S
C959        C960   1.409       .  A
C960        H964   1.084       .  S
C961        H971   1.111       .  S
C961        H972   1.109   1_655  S
C961        H973   1.111       .  S
C963        H974   1.110       .  S
C963        H975   1.105   1_455  S
C963        H976   1.111   1_455  S
C977        C978   1.402       .  A
C977        C982   1.404       .  A
C977        H987   1.084       .  S
C978        C983   1.484       .  S
C978        C979   1.411       .  A
C979        C984   1.506       .  S
C979        C980   1.407       .  A
C980        C981   1.404       .  A
C980        H985   1.084       .  S
C981        C982   1.415       .  A
C982        C986   1.507       .  S
C983        C988   1.400       .  A
C983        C992   1.394       .  A
C984       H1000   1.110       .  S
C984       H1001   1.110       .  S
C984       H1002   1.111       .  S
C986        H997   1.111       .  S
C986        H998   1.110   1_545  S
C986        H999   1.108       .  S
C988        C993   1.507       .  S
C988        C989   1.401       .  A
C989        C990   1.427       .  A
C989        H994   1.082       .  S
C990        C991   1.447       .  A
C991        C995   1.514       .  S
C991        C992   1.409       .  A
C992        H996   1.086       .  S
C993       H1003   1.111       .  S
C993       H1004   1.110       .  S
C993       H1005   1.110       .  S
C995       H1006   1.112   1_545  S
C995       H1007   1.095       .  S
C995       H1008   1.110       .  S
C1009      C1010   1.395       .  A
C1009      C1014   1.407       .  A
C1009      H1019   1.084       .  S
C1010      C1015   1.484       .  S
C1010      C1011   1.403       .  A
C1011      C1016   1.508       .  S
C1011      C1012   1.402       .  A
C1012      C1013   1.424       .  A
C1012      H1017   1.077       .  S
C1013      C1014   1.439       .  A
C1014      C1018   1.510       .  S
C1015      C1020   1.409       .  A
C1015      C1024   1.397   1_655  A
C1016      H1032   1.109   1_655  S
C1016      H1033   1.110       .  S
C1016      H1034   1.111       .  S
C1018      H1029   1.106       .  S
C1018      H1030   1.111   1_545  S
C1018      H1031   1.099       .  S
C1020      C1025   1.506       .  S
C1020      C1021   1.406       .  A
C1021      C1022   1.410   1_655  A
C1021      H1026   1.083       .  S
C1022      C1023   1.427       .  A
C1023      C1027   1.510       .  S
C1023      C1024   1.403       .  A
C1024      H1028   1.085       .  S
C1025      H1035   1.111       .  S
C1025      H1036   1.109       .  S
C1025      H1037   1.111       .  S
C1027      H1038   1.108       .  S
C1027      H1039   1.110       .  S
C1027      H1040   1.111       .  S
C1041      C1042   1.392       .  A
C1041      C1046   1.404       .  A
C1041      H1051   1.084       .  S
C1042      C1047   1.480       .  S
C1042      C1043   1.402       .  A
C1043      C1048   1.508       .  S
C1043      C1044   1.403       .  A
C1044      C1045   1.423       .  A
C1044      H1049   1.077       .  S
C1045      C1046   1.444       .  A
C1046      C1050   1.515       .  S
C1047      C1052   1.403       .  A
C1047      C1056   1.394       .  A
C1048      H1064   1.110       .  S
C1048      H1065   1.111       .  S
C1048      H1066   1.111       .  S
C1050      H1061   1.107       .  S
C1050      H1062   1.111       .  S
C1050      H1063   1.104       .  S
C1052      C1057   1.507       .  S
C1052      C1053   1.402       .  A
C1053      C1054   1.420       .  A
C1053      H1058   1.079       .  S
C1054      C1055   1.442       .  A
C1055      C1059   1.514       .  S
C1055      C1056   1.406       .  A
C1056      H1060   1.085       .  S
C1057      H1067   1.111       .  S
C1057      H1068   1.110       .  S
C1057      H1069   1.111       .  S
C1059      H1070   1.111       .  S
C1059      H1071   1.097       .  S
C1059      H1072   1.110       .  S
C1073      C1074   1.393       .  A
C1073      C1078   1.407       .  A
C1073      H1083   1.084       .  S
C1074      C1079   1.476       .  S
C1074      C1075   1.399       .  A
C1075      C1080   1.508       .  S
C1075      C1076   1.397       .  A
C1076      C1077   1.424       .  A
C1076      H1081   1.078       .  S
C1077      C1078   1.440       .  A
C1078      C1082   1.508       .  S
C1079      C1084   1.410       .  A
C1079      C1088   1.398       .  A
C1080      H1096   1.110       .  S
C1080      H1097   1.110       .  S
C1080      H1098   1.111       .  S
C1082      H1093   1.111       .  S
C1082      H1094   1.104       .  S
C1082      H1095   1.100       .  S
C1084      C1089   1.506       .  S
C1084      C1085   1.405       .  A
C1085      C1086   1.404       .  A
C1085      H1090   1.084       .  S
C1086      C1087   1.416       .  A
C1087      C1091   1.507       .  S
C1087      C1088   1.400       .  A
C1088      H1092   1.084       .  S
C1089      H1099   1.111       .  S
C1089      H1100   1.110       .  S
C1089      H1101   1.110       .  S
C1091      H1102   1.111       .  S
C1091      H1103   1.110       .  S
C1091      H1104   1.107       .  S
C1105      C1106   1.398       .  A
C1105      C1110   1.413       .  A
C1105      H1115   1.085       .  S
C1106      C1111   1.489       .  S
C1106      C1107   1.404       .  A
C1107      C1112   1.508       .  S
C1107      C1108   1.400       .  A
C1108      C1109   1.421       .  A
C1108      H1113   1.077       .  S
C1109      C1110   1.443       .  A
C1110      C1114   1.512       .  S
C1111      C1116   1.412       .  A
C1111      C1120   1.398       .  A
C1112      H1128   1.109       .  S
C1112      H1129   1.110       .  S
C1112      H1130   1.111       .  S
C1114      H1125   1.110       .  S
C1114      H1126   1.111       .  S
C1114      H1127   1.098       .  S
C1116      C1121   1.505       .  S
C1116      C1117   1.410       .  A
C1117      C1118   1.410       .  A
C1117      H1122   1.084       .  S
C1118      C1119   1.423       .  A
C1119      C1123   1.506       .  S
C1119      C1120   1.402       .  A
C1120      H1124   1.084       .  S
C1121      H1131   1.111       .  S
C1121      H1132   1.110       .  S
C1121      H1133   1.110       .  S
C1123      H1134   1.111       .  S
C1123      H1135   1.110       .  S
C1123      H1136   1.109       .  S
C1137      C1138   1.396       .  A
C1137      C1142   1.402       .  A
C1137      H1147   1.085       .  S
C1138      C1143   1.482       .  S
C1138      C1139   1.410       .  A
C1139      C1144   1.506       .  S
C1139      C1140   1.408       .  A
C1140      C1141   1.410       .  A
C1140      H1145   1.084       .  S
C1141      C1142   1.424       .  A
C1142      C1146   1.508       .  S
C1143      C1148   1.402       .  A
C1143      C1152   1.393       .  A
C1144      H1160   1.110       .  S
C1144      H1161   1.111       .  S
C1144      H1162   1.111       .  S
C1146      H1157   1.110       .  S
C1146      H1158   1.111       .  S
C1146      H1159   1.109       .  S
C1148      C1153   1.506       .  S
C1148      C1149   1.402       .  A
C1149      C1150   1.423       .  A
C1149      H1154   1.082       .  S
C1150      C1151   1.448       .  A
C1151      C1155   1.514       .  S
C1151      C1152   1.405       .  A
C1152      H1156   1.086       .  S
C1153      H1163   1.111       .  S
C1153      H1164   1.110       .  S
C1153      H1165   1.110       .  S
C1155      H1166   1.111       .  S
C1155      H1167   1.094       .  S
C1155      H1168   1.111       .  S
