geometry optimzed in LAMMPS
_audit_creation_date              2020-11-30 
_audit_creation_method            'lammps2cif' 
_symmetry_space_group_name_H-M    'P1' 
_symmetry_Int_Tables_number       1 
_symmetry_cell_setting            triclinic 
loop_ 
_symmetry_equiv_pos_as_xyz 
  x,y,z 
_cell_length_a                    40.43224780066571 
_cell_length_b                    40.26110186904606 
_cell_length_c                    23.88133314910813 
_cell_angle_alpha                 90.56846218927494 
_cell_angle_beta                  89.84039127051304 
_cell_angle_gamma                 91.85248428970594 
loop_ 
_atom_site_label 
_atom_site_type_symbol 
_atom_site_fract_x 
_atom_site_fract_y 
_atom_site_fract_z 
_atom_site_charge 
C1          C  0.25582366  0.00057667  0.02856938     0.01170
C2          C  0.25503017  0.50168721  0.47151450     0.01170
C3          C  0.23554356  0.09734216  0.20280680     0.03740
C4          C  0.23160387  0.08065693  0.25351307    -0.12410
C5          C  0.23124371  0.09819535  0.30449037     0.01240
C6          C  0.23485630  0.13302863  0.30428644    -0.10940
C7          C  0.23879195  0.15019557  0.25343762     0.03730
C8          C  0.23930822  0.13202441  0.20279429    -0.10360
H9          H  0.23050149  0.05369892  0.25337341     0.09320
H10         H  0.23507945  0.14657233  0.34371158     0.06850
H11         H  0.24341447  0.14462590  0.16338194     0.06700
C12         C  0.26107684  0.40362810  0.29585347     0.03740
C13         C  0.26385883  0.41944539  0.24407108    -0.12410
C14         C  0.26297936  0.40098340  0.19424444     0.01240
C15         C  0.25974870  0.36629936  0.19601339    -0.10940
C16         C  0.25783357  0.34988038  0.24778867     0.03730
C17         C  0.25835481  0.36881801  0.29774536    -0.10360
H18         H  0.26559801  0.44636776  0.24245180     0.09320
H19         H  0.25865091  0.35229405  0.15705539     0.06850
H20         H  0.25641656  0.35669463  0.33797112     0.06700
C21         C  0.99961335  0.24305506  0.47150403     0.01170
C22         C  0.99945536  0.24448239  0.02851457     0.01170
C23         C  0.09838651  0.25815670  0.19886486     0.03740
C24         C  0.08125574  0.26201331  0.24942249    -0.12410
C25         C  0.09795836  0.26294828  0.30082593     0.01240
C26         C  0.13248180  0.26030616  0.30127853    -0.10940
C27         C  0.15012587  0.25646829  0.25079224     0.03730
C28         C  0.13273306  0.25472457  0.19979351    -0.10360
H29         H  0.05447110  0.26284345  0.24877975     0.09320
H30         H  0.14544178  0.26098525  0.34093529     0.06850
H31         H  0.14572709  0.25029712  0.16082232     0.06700
C32         C  0.40082059  0.24596458  0.19928532     0.03740
C33         C  0.41796096  0.24550855  0.24997600    -0.12410
C34         C  0.40103680  0.24513403  0.30108540     0.01240
C35         C  0.36636670  0.24529000  0.30158362    -0.10940
C36         C  0.34864654  0.24585192  0.25082919     0.03730
C37         C  0.36616886  0.24614888  0.19965088    -0.10360
H38         H  0.44479925  0.24535916  0.24964583     0.09320
H39         H  0.35339071  0.24483152  0.34132952     0.06850
H40         H  0.35306734  0.24685787  0.16019676     0.06700
O41         O  0.24456862  0.20359182  0.29801535    -0.71170
O42         O  0.25363788  0.29787350  0.29531765    -0.71390
O43         O  0.20242858  0.25377599  0.29666482    -0.71250
O44         O  0.29604383  0.24785189  0.29665331    -0.71260
O45         O  0.29606645  0.24687767  0.20575485    -0.71220
O46         O  0.20254003  0.25183770  0.20578768    -0.71240
O47         O  0.25328129  0.29631821  0.20443192    -0.71180
O48         O  0.24515399  0.20225911  0.20712814    -0.71370
V49         V  0.24920764  0.25071040  0.29493020     1.35240
V50         V  0.24928058  0.24932052  0.20758118     1.35170
C51         C  0.24307497  0.18683702  0.25293520     0.78070
C52         C  0.25480284  0.31319951  0.24932617     0.78120
C53         C  0.18650487  0.25385108  0.25115727     0.77990
C54         C  0.31208945  0.24676181  0.25114032     0.77950
C55         C  0.05824476  0.22422031  0.14530253    -0.11660
C56         C  0.07901491  0.25269334  0.14691386     0.05340
C57         C  0.07673746  0.27667899  0.10404917    -0.06950
C58         C  0.05267992  0.27157019  0.06192345    -0.07690
C59         C  0.03020524  0.24421923  0.06302887    -0.02250
C60         C  0.03365388  0.21984066  0.10473812     0.04570
N61         N  0.01146492  0.19128981  0.10836382     0.67080
H62         H  0.06013871  0.20589360  0.17801739     0.15980
H63         H  0.04997540  0.29025327  0.03014600     0.15690
N64         N  0.09630063  0.30730898  0.10466982     0.74780
O65         O  0.00273759  0.18017303  0.15559439    -0.38670
O66         O  0.50330079  0.17501430  0.06491706    -0.38610
O67         O  0.12468237  0.30891973  0.12648524    -0.39310
O68         O  0.08607745  0.33257234  0.07992753    -0.39380
C69         C  0.02828650  0.27890215  0.40202746    -0.11660
C70         C  0.02984449  0.25109528  0.43700224     0.05340
C71         C  0.05841006  0.23163168  0.43432461    -0.06950
C72         C  0.08224333  0.23810334  0.39253947    -0.07690
C73         C  0.07834689  0.26352927  0.35349758    -0.02250
C74         C  0.05214095  0.28556271  0.36067468     0.04570
N75         N  0.04904131  0.31425725  0.32569104     0.67080
H76         H  0.00774421  0.29533751  0.40619947     0.15980
H77         H  0.10259637  0.22141881  0.38785251     0.15690
N78         N  0.06331915  0.20452917  0.47142225     0.74780
O79         O  0.02101412  0.32619798  0.31717671    -0.38670
O80         O  0.07449326  0.32945989  0.30702862    -0.38610
O81         O  0.04288501  0.18027153  0.47203806    -0.39310
O82         O  0.09108933  0.20162709  0.49460020    -0.39380
C83         C  0.44496937  0.22180367  0.06483552    -0.11660
C84         C  0.46818561  0.24838783  0.06106316     0.05340
C85         C  0.46465372  0.27653000  0.09615117    -0.06950
C86         C  0.44102339  0.27550118  0.13896887    -0.07690
C87         C  0.42020996  0.24745369  0.14680700    -0.02250
C88         C  0.42117060  0.22066451  0.10798027     0.04570
N89         N  0.40009565  0.19135693  0.11360779     0.67080
H90         H  0.44721820  0.20055619  0.03715430     0.15980
H91         H  0.43941025  0.29644270  0.16762932     0.15690
N92         N  0.48527033  0.30600891  0.08941060     0.74780
O93         O  0.39173808  0.17456723  0.07070318    -0.38670
O94         O  0.39271011  0.18007149  0.16131801    -0.38610
O95         O  0.99205804  0.31662434  0.04102698    -0.39310
O96         O  0.49347545  0.32363515  0.13145894    -0.39380
C97         C  0.44753522  0.26750553  0.43529999    -0.11660
C98         C  0.46811528  0.24011275  0.43888779     0.05340
C99         C  0.46264830  0.21288292  0.40225738    -0.06950
C100        C  0.43923641  0.21471437  0.35970439    -0.07690
C101        C  0.42056952  0.24308375  0.35302768    -0.02250
C102        C  0.42387065  0.26957472  0.39236317     0.04570
N103        N  0.40540560  0.29943452  0.38751768     0.67080
H104        H  0.45195050  0.28863434  0.46294788     0.15980
H105        H  0.43618762  0.19409506  0.33041415     0.15690
N106        N  0.48095560  0.18326879  0.40745825     0.74780
O107        O  0.39911996  0.31649665  0.43067680    -0.38670
O108        O  0.39821585  0.31074276  0.34012159    -0.38610
O109        O  0.97784674  0.16629764  0.45138737    -0.39310
O110        O  0.49428729  0.17058581  0.36479495    -0.39380
C111        C  0.22272745  0.04717550  0.06830276    -0.11660
C112        C  0.25296409  0.03084657  0.06524783     0.05340
C113        C  0.27835665  0.04035256  0.10361038    -0.06950
C114        C  0.27202443  0.06356369  0.14581344    -0.07690
C115        C  0.24109676  0.07769634  0.15142198    -0.02250
C116        C  0.21597840  0.06985436  0.11188922     0.04570
N117        N  0.18320677  0.08276982  0.11697437     0.67080
H118        H  0.20370275  0.04142942  0.03775940     0.15980
H119        H  0.29134217  0.07020295  0.17568383     0.15710
N120        N  0.31101723  0.02759162  0.09979919     0.74780
O121        O  0.17844152  0.11009885  0.14155218    -0.38670
O122        O  0.15875725  0.06720156  0.09527915    -0.38610
O123        O  0.32688037  0.02155895  0.14382063    -0.39310
O124        O  0.32628552  0.02831793  0.05373511    -0.39380
C125        C  0.21613131  0.02878600  0.40755200    -0.11660
C126        C  0.24506327  0.03176361  0.44001195     0.05340
C127        C  0.26517154  0.06096717  0.43507492    -0.06950
C128        C  0.25808259  0.08428207  0.39398816    -0.07690
C129        C  0.23130968  0.07919650  0.35738364    -0.02250
C130        C  0.20887186  0.05208694  0.36639898     0.04570
N131        N  0.17943058  0.04729389  0.33298976     0.67080
H132        H  0.19956493  0.00740575  0.41295414     0.15980
H133        H  0.27526051  0.10515945  0.38778299     0.15690
N134        N  0.29401688  0.06672777  0.46845324     0.74780
O135        O  0.16653506  0.01856560  0.32604046    -0.38670
O136        O  0.16480879  0.07192689  0.31366452    -0.38610
O137        O  0.32178932  0.06008525  0.44776435    -0.39310
O138        O  0.29295052  0.08812658  0.50733169    -0.39380
C139        C  0.28829033  0.45713816  0.07498749    -0.11660
C140        C  0.25719585  0.46815884  0.05855862     0.05340
C141        C  0.22822026  0.45070874  0.07802677    -0.06950
C142        C  0.23165075  0.42616888  0.11881743    -0.07690
C143        C  0.26254325  0.41885998  0.14076235    -0.02250
C144        C  0.29149495  0.43347616  0.11729046     0.04570
N145        N  0.32396159  0.42600736  0.13768449     0.67080
H146        H  0.31037601  0.46828141  0.05688691     0.15980
H147        H  0.20973179  0.41427558  0.13686202     0.15690
N148        N  0.19528438  0.45704656  0.05815008     0.74780
O149        O  0.34805756  0.44625813  0.13038518    -0.38670
O150        O  0.32920871  0.39853409  0.16052758    -0.38610
O151        O  0.17227865  0.43541450  0.06441535    -0.39310
O152        O  0.18884126  0.48331291  0.03276311    -0.39380
C153        C  0.23236782  0.44917351  0.42659128    -0.11660
C154        C  0.25949381  0.47121445  0.43613012     0.05340
C155        C  0.28803607  0.46823347  0.40256038    -0.06950
C156        C  0.28821667  0.44492591  0.35875372    -0.07690
C157        C  0.26049672  0.42429051  0.34729985    -0.02250
C158        C  0.23220656  0.42602972  0.38208757     0.04570
N159        N  0.20235130  0.40669670  0.37052188     0.67080
H160        H  0.20995475  0.45196098  0.45045269     0.15980
H161        H  0.31001770  0.44335804  0.33244254     0.15690
N162        N  0.31686122  0.48911619  0.41164680     0.74780
O163        O  0.18300706  0.39858157  0.41003660    -0.38670
O164        O  0.19300744  0.40142507  0.32072903    -0.38610
O165        O  0.33053069  0.48962658  0.45902724    -0.39310
O166        O  0.33220447  0.50164414  0.37043728    -0.39380
C167        C  0.25596807  0.00055693  0.52858089     0.01170
C168        C  0.25485731  0.50172124  0.97150468     0.01170
C169        C  0.23555109  0.09735331  0.70271835     0.03740
C170        C  0.23155361  0.08066494  0.75341349    -0.12410
C171        C  0.23113991  0.09819980  0.80439309     0.01240
C172        C  0.23475721  0.13303319  0.80420004    -0.10940
C173        C  0.23875538  0.15020323  0.75336671     0.03730
C174        C  0.23932358  0.13203578  0.70272247    -0.10360
H175        H  0.23045112  0.05370705  0.75326807     0.09320
H176        H  0.23493920  0.14657530  0.84362621     0.06850
H177        H  0.24347884  0.14464017  0.66332568     0.06700
C178        C  0.26110597  0.40363467  0.79590554     0.03740
C179        C  0.26392661  0.41944950  0.74412624    -0.12410
C180        C  0.26307284  0.40098654  0.69430216     0.01240
C181        C  0.25983087  0.36630417  0.69606912    -0.10940
C182        C  0.25787822  0.34988588  0.74784154     0.03730
C183        C  0.25837473  0.36882402  0.79779841    -0.10360
H184        H  0.26566561  0.44637192  0.74250435     0.09320
H185        H  0.25874754  0.35229981  0.65710946     0.06850
H186        H  0.25640197  0.35670158  0.83802127     0.06700
C187        C  0.99961369  0.24305463  0.97150251     0.01170
C188        C  0.99945506  0.24448389  0.52851598     0.01170
C189        C  0.09838627  0.25816815  0.69886425     0.03740
C190        C  0.08125519  0.26202104  0.74942249    -0.12410
C191        C  0.09795817  0.26295854  0.80082554     0.01240
C192        C  0.13248234  0.26032306  0.80127733    -0.10940
C193        C  0.15012685  0.25648951  0.75079025     0.03730
C194        C  0.13273373  0.25474286  0.69979203    -0.10360
H195        H  0.05447023  0.26284644  0.74878059     0.09320
H196        H  0.14544250  0.26100337  0.84093391     0.06850
H197        H  0.14572820  0.25031684  0.66082078     0.06700
C198        C  0.40081975  0.24596312  0.69928621     0.03740
C199        C  0.41795991  0.24550823  0.74997714    -0.12410
C200        C  0.40103544  0.24513082  0.80108620     0.01240
C201        C  0.36636515  0.24528252  0.80158396    -0.10940
C202        C  0.34864514  0.24584348  0.75082925     0.03730
C203        C  0.36616788  0.24614374  0.69965130    -0.10360
H204        H  0.44479831  0.24536149  0.74964745     0.09320
H205        H  0.35338898  0.24482246  0.84132965     0.06850
H206        H  0.35306654  0.24685235  0.66019698     0.06700
O207        O  0.24454996  0.20358866  0.79797930    -0.71170
O208        O  0.25365314  0.29787097  0.79534813    -0.71390
O209        O  0.20242869  0.25378763  0.79666241    -0.71250
O210        O  0.29604119  0.24783419  0.79665213    -0.71260
O211        O  0.29606641  0.24688257  0.70575338    -0.71220
O212        O  0.20254192  0.25186699  0.70578451    -0.71240
O213        O  0.25329709  0.29633389  0.70446185    -0.71180
O214        O  0.24514182  0.20227616  0.70709169    -0.71370
V215        V  0.24920623  0.25070759  0.79492811     1.35240
V216        V  0.24928162  0.24933710  0.70757858     1.35170
C217        C  0.24305286  0.18684418  0.75288793     0.78070
C218        C  0.25482684  0.31320581  0.74936536     0.78120
C219        C  0.18650600  0.25387320  0.75115455     0.77990
C220        C  0.31208802  0.24675371  0.75113948     0.77950
C221        C  0.05824641  0.22422731  0.64530428    -0.11660
C222        C  0.07901496  0.25270166  0.64691352     0.05340
C223        C  0.07673595  0.27668583  0.60404692    -0.06950
C224        C  0.05267865  0.27157454  0.56192174    -0.07690
C225        C  0.03020522  0.24422266  0.56302970    -0.02250
C226        C  0.03365537  0.21984530  0.60474050     0.04570
N227        N  0.01146784  0.19129337  0.60836822     0.67080
H228        H  0.06014162  0.20590156  0.67802039     0.15980
H229        H  0.04997312  0.29025663  0.53014293     0.15690
N230        N  0.09629662  0.30731727  0.60466581     0.74780
O231        O  0.00274267  0.18017610  0.65559954    -0.38670
O232        O  0.50330229  0.17501794  0.56492209    -0.38610
O233        O  0.12468114  0.30892896  0.62647075    -0.39310
O234        O  0.08606870  0.33258070  0.57992970    -0.39380
C235        C  0.02828505  0.27890461  0.90202820    -0.11660
C236        C  0.02984450  0.25109690  0.93700082     0.05340
C237        C  0.05841113  0.23163479  0.93432126    -0.06950
C238        C  0.08224435  0.23810928  0.89253682    -0.07690
C239        C  0.07834658  0.26353626  0.85349727    -0.02250
C240        C  0.05213902  0.28556757  0.86067574     0.04570
N241        N  0.04903712  0.31426228  0.82569324     0.67080
H242        H  0.00774190  0.29533877  0.90620149     0.15980
H243        H  0.10259854  0.22142626  0.88784828     0.15690
N244        N  0.06332148  0.20453120  0.97141629     0.74780
O245        O  0.02100885  0.32620059  0.81717880    -0.38670
O246        O  0.07448789  0.32946710  0.80703115    -0.38610
O247        O  0.04288568  0.18027502  0.97203667    -0.39310
O248        O  0.09109267  0.20162768  0.99459007    -0.39380
C249        C  0.44496928  0.22180436  0.56483617    -0.11660
C250        C  0.46818524  0.24838878  0.56106463     0.05340
C251        C  0.46465286  0.27653066  0.59615315    -0.06950
C252        C  0.44102248  0.27550118  0.63897081    -0.07690
C253        C  0.42020927  0.24745337  0.64680804    -0.02250
C254        C  0.42117028  0.22066466  0.60798047     0.04570
N255        N  0.40009549  0.19135690  0.61360678     0.67080
H256        H  0.44721846  0.20055706  0.53715464     0.15980
H257        H  0.43940903  0.29644242  0.66763176     0.15690
N258        N  0.48526892  0.30600997  0.58941292     0.74780
O259        O  0.39173731  0.17456829  0.57070132    -0.38670
O260        O  0.39271090  0.18007011  0.66131650    -0.38610
O261        O  0.99205594  0.31662604  0.54102944    -0.39310
O262        O  0.49347424  0.32363585  0.63146156    -0.39380
C263        C  0.44753483  0.26750427  0.93529901    -0.11660
C264        C  0.46811548  0.24011190  0.93888654     0.05340
C265        C  0.46264851  0.21288177  0.90225676    -0.06950
C266        C  0.43923586  0.21471240  0.85970487    -0.07690
C267        C  0.42056832  0.24308131  0.85302835    -0.02250
C268        C  0.42386966  0.26957276  0.89236293     0.04570
N269        N  0.40540409  0.29943225  0.88751732     0.67080
H270        H  0.45195004  0.28863328  0.96294652     0.15980
H271        H  0.43618711  0.19409288  0.83041505     0.15690
N272        N  0.48095655  0.18326811  0.90745705     0.74780
O273        O  0.39911958  0.31649522  0.93067600    -0.38670
O274        O  0.39821248  0.31073927  0.84012122    -0.38610
O275        O  0.97784777  0.16629642  0.95138558    -0.39310
O276        O  0.49428833  0.17058567  0.86479337    -0.39380
C277        C  0.22287163  0.04720661  0.56815632    -0.11660
C278        C  0.25309082  0.03083905  0.56523018     0.05340
C279        C  0.27844041  0.04032372  0.60368191    -0.06950
C280        C  0.27207627  0.06354016  0.64586142    -0.07690
C281        C  0.24115736  0.07770838  0.65134728    -0.02250
C282        C  0.21608925  0.06990004  0.61170514     0.04570
N283        N  0.18333023  0.08286408  0.61663833     0.67080
H284        H  0.20388234  0.04147730  0.53754189     0.15980
H285        H  0.29136003  0.07015529  0.67580745     0.15710
N286        N  0.31109104  0.02753204  0.59998516     0.74780
O287        O  0.17856621  0.11020151  0.64118938    -0.38670
O288        O  0.15889579  0.06733809  0.59481364    -0.38610
O289        O  0.32686696  0.02142193  0.64406347    -0.39310
O290        O  0.32644218  0.02831278  0.55399980    -0.39380
C291        C  0.21597934  0.02878782  0.90745394    -0.11660
C292        C  0.24487466  0.03179840  0.94000604     0.05340
C293        C  0.26495575  0.06102464  0.93511246    -0.06950
C294        C  0.25788580  0.08432392  0.89399036    -0.07690
C295        C  0.23116366  0.07920153  0.85729321    -0.02250
C296        C  0.20874490  0.05206917  0.86625178     0.04570
N297        N  0.17935090  0.04723210  0.83273833     0.67080
H298        H  0.19942804  0.00739213  0.91281225     0.15980
H299        H  0.27504977  0.10521781  0.88783078     0.15690
N300        N  0.29376818  0.06682179  0.96855405     0.74780
O301        O  0.16650747  0.01848539  0.82574247    -0.38670
O302        O  0.16471843  0.07184156  0.81335189    -0.38610
O303        O  0.32156291  0.06019937  0.94793169    -0.39310
O304        O  0.29265242  0.08823953  0.00739696    -0.39380
C305        C  0.28840813  0.45710531  0.57500983    -0.11660
C306        C  0.25731924  0.46814798  0.55859488     0.05340
C307        C  0.22833273  0.45073370  0.57810345    -0.06950
C308        C  0.23175319  0.42619822  0.61890234    -0.07690
C309        C  0.26264432  0.41886117  0.64082040    -0.02250
C310        C  0.29160300  0.43344763  0.61732292     0.04570
N311        N  0.32406719  0.42595579  0.63770241     0.67080
H312        H  0.31049860  0.46823696  0.55690026     0.15980
H313        H  0.20982952  0.41432901  0.63697488     0.15690
N314        N  0.19539555  0.45710679  0.55826575     0.74780
O315        O  0.34818079  0.44617878  0.63035562    -0.38670
O316        O  0.32929335  0.39848876  0.66058230    -0.38610
O317        O  0.17235758  0.43552152  0.56464028    -0.39310
O318        O  0.18898182  0.48335331  0.53279734    -0.39380
C319        C  0.23224992  0.44919769  0.92652721    -0.11660
C320        C  0.25935346  0.47125955  0.93611202     0.05340
C321        C  0.28791951  0.46829746  0.90260292    -0.06950
C322        C  0.28816314  0.44496974  0.85883566    -0.07690
C323        C  0.26047050  0.42430463  0.84733903    -0.02250
C324        C  0.23214339  0.42604210  0.88204213     0.04570
N325        N  0.20230491  0.40669984  0.87039600     0.67080
H326        H  0.20981411  0.45197713  0.95033078     0.15980
H327        H  0.30998766  0.44342123  0.83257594     0.15690
N328        N  0.31670060  0.48923695  0.91168515     0.74780
O329        O  0.18291996  0.39858770  0.90985606    -0.38670
O330        O  0.19301050  0.40142762  0.82057692    -0.38610
O331        O  0.33052997  0.48956159  0.95892862    -0.39310
O332        O  0.33188287  0.50196865  0.87048482    -0.39380
C333        C  0.25582356  0.50057669  0.02856937     0.01170
C334        C  0.25502998  0.00168724  0.47151449     0.01170
C335        C  0.23554356  0.59734216  0.20280686     0.03740
C336        C  0.23160393  0.58065693  0.25351315    -0.12410
C337        C  0.23124383  0.59819535  0.30449044     0.01240
C338        C  0.23485640  0.63302863  0.30428650    -0.10940
C339        C  0.23879198  0.65019557  0.25343768     0.03730
C340        C  0.23930820  0.63202441  0.20279434    -0.10360
H341        H  0.23050156  0.55369891  0.25337349     0.09320
H342        H  0.23507960  0.64657233  0.34371165     0.06850
H343        H  0.24341440  0.64462589  0.16338198     0.06700
C344        C  0.26107685  0.90362810  0.29585350     0.03740
C345        C  0.26385887  0.91944539  0.24407111    -0.12410
C346        C  0.26297942  0.90098340  0.19424448     0.01240
C347        C  0.25974875  0.86629936  0.19601342    -0.10940
C348        C  0.25783359  0.84988038  0.24778870     0.03730
C349        C  0.25835481  0.86881801  0.29774539    -0.10360
H350        H  0.26559804  0.94636775  0.24245182     0.09320
H351        H  0.25865097  0.85229404  0.15705543     0.06850
H352        H  0.25641653  0.85669464  0.33797115     0.06700
C353        C  0.99961335  0.74305508  0.47150404     0.01170
C354        C  0.99945536  0.74448237  0.02851457     0.01170
C355        C  0.09838652  0.75815669  0.19886487     0.03740
C356        C  0.08125574  0.76201330  0.24942250    -0.12410
C357        C  0.09795836  0.76294829  0.30082594     0.01240
C358        C  0.13248180  0.76030617  0.30127855    -0.10940
C359        C  0.15012587  0.75646829  0.25079226     0.03730
C360        C  0.13273307  0.75472456  0.19979353    -0.10360
H361        H  0.05447110  0.76284344  0.24877976     0.09320
H362        H  0.14544178  0.76098527  0.34093530     0.06850
H363        H  0.14572710  0.75029710  0.16082234     0.06700
C364        C  0.40082059  0.74596457  0.19928532     0.03740
C365        C  0.41796096  0.74550855  0.24997600    -0.12410
C366        C  0.40103680  0.74513403  0.30108541     0.01240
C367        C  0.36636671  0.74529000  0.30158363    -0.10940
C368        C  0.34864654  0.74585192  0.25082920     0.03730
C369        C  0.36616886  0.74614887  0.19965088    -0.10360
H370        H  0.44479925  0.74535915  0.24964582     0.09320
H371        H  0.35339072  0.74483153  0.34132953     0.06850
H372        H  0.35306734  0.74685786  0.16019678     0.06700
O373        O  0.24456864  0.70359183  0.29801539    -0.71170
O374        O  0.25363788  0.79787350  0.29531768    -0.71390
O375        O  0.20242859  0.75377598  0.29666485    -0.71250
O376        O  0.29604384  0.74785189  0.29665334    -0.71260
O377        O  0.29606645  0.74687767  0.20575487    -0.71220
O378        O  0.20254003  0.75183770  0.20578771    -0.71240
O379        O  0.25328130  0.79631821  0.20443195    -0.71180
O380        O  0.24515399  0.70225911  0.20712818    -0.71370
V381        V  0.24920764  0.75071041  0.29493023     1.35240
V382        V  0.24928058  0.74932052  0.20758121     1.35170
C383        C  0.24307499  0.68683702  0.25293524     0.78070
C384        C  0.25480285  0.81319951  0.24932620     0.78120
C385        C  0.18650488  0.75385108  0.25115730     0.77990
C386        C  0.31208946  0.74676181  0.25114035     0.77950
C387        C  0.05824476  0.72422030  0.14530255    -0.11660
C388        C  0.07901491  0.75269333  0.14691387     0.05340
C389        C  0.07673747  0.77667897  0.10404917    -0.06950
C390        C  0.05267992  0.77157017  0.06192345    -0.07690
C391        C  0.03020524  0.74421921  0.06302888    -0.02250
C392        C  0.03365387  0.71984065  0.10473814     0.04570
N393        N  0.01146491  0.69128980  0.10836385     0.67080
H394        H  0.06013871  0.70589359  0.17801741     0.15980
H395        H  0.04997540  0.79025325  0.03014600     0.15690
N396        N  0.09630064  0.80730895  0.10466982     0.74780
O397        O  0.00273758  0.68017303  0.15559443    -0.38670
O398        O  0.50330077  0.67501428  0.06491710    -0.38610
O399        O  0.12468239  0.80891970  0.12648520    -0.39310
O400        O  0.08607746  0.83257232  0.07992755    -0.39380
C401        C  0.02828650  0.77890217  0.40202746    -0.11660
C402        C  0.02984450  0.75109529  0.43700225     0.05340
C403        C  0.05841006  0.73163170  0.43432463    -0.06950
C404        C  0.08224333  0.73810336  0.39253949    -0.07690
C405        C  0.07834689  0.76352928  0.35349759    -0.02250
C406        C  0.05214094  0.78556272  0.36067468     0.04570
N407        N  0.04904131  0.81425726  0.32569103     0.67080
H408        H  0.00774421  0.79533752  0.40619947     0.15980
H409        H  0.10259638  0.72141883  0.38785254     0.15690
N410        N  0.06331916  0.70452919  0.47142229     0.74780
O411        O  0.02101411  0.82619798  0.31717670    -0.38670
O412        O  0.07449325  0.82945989  0.30702860    -0.38610
O413        O  0.04288501  0.68027156  0.47203812    -0.39310
O414        O  0.09108934  0.70162712  0.49460022    -0.39380
C415        C  0.44496937  0.72180366  0.06483552    -0.11660
C416        C  0.46818561  0.74838782  0.06106316     0.05340
C417        C  0.46465372  0.77652999  0.09615117    -0.06950
C418        C  0.44102339  0.77550117  0.13896886    -0.07690
C419        C  0.42020995  0.74745368  0.14680700    -0.02250
C420        C  0.42117060  0.72066450  0.10798027     0.04570
N421        N  0.40009565  0.69135692  0.11360778     0.67080
H422        H  0.44721820  0.70055617  0.03715430     0.15980
H423        H  0.43941025  0.79644269  0.16762932     0.15690
N424        N  0.48527033  0.80600890  0.08941060     0.74780
O425        O  0.39173808  0.67456722  0.07070318    -0.38670
O426        O  0.39271010  0.68007148  0.16131801    -0.38610
O427        O  0.99205804  0.81662433  0.04102698    -0.39310
O428        O  0.49347545  0.82363514  0.13145893    -0.39380
C429        C  0.44753522  0.76750554  0.43529999    -0.11660
C430        C  0.46811528  0.74011276  0.43888779     0.05340
C431        C  0.46264831  0.71288293  0.40225738    -0.06950
C432        C  0.43923643  0.71471438  0.35970439    -0.07690
C433        C  0.42056953  0.74308375  0.35302767    -0.02250
C434        C  0.42387065  0.76957473  0.39236317     0.04570
N435        N  0.40540559  0.79943452  0.38751768     0.67080
H436        H  0.45195049  0.78863435  0.46294788     0.15980
H437        H  0.43618763  0.69409507  0.33041415     0.15690
N438        N  0.48095561  0.68326881  0.40745825     0.74780
O439        O  0.39911995  0.81649665  0.43067679    -0.38670
O440        O  0.39821585  0.81074277  0.34012158    -0.38610
O441        O  0.97784676  0.66629765  0.45138737    -0.39310
O442        O  0.49428732  0.67058583  0.36479496    -0.39380
C443        C  0.22272735  0.54717547  0.06830287    -0.11660
C444        C  0.25296401  0.53084658  0.06524784     0.05340
C445        C  0.27835659  0.54035260  0.10361030    -0.06950
C446        C  0.27202440  0.56356373  0.14581338    -0.07690
C447        C  0.24109671  0.57769634  0.15142202    -0.02250
C448        C  0.21597831  0.56985432  0.11188936     0.04570
N449        N  0.18320667  0.58276973  0.11697464     0.67080
H450        H  0.20370262  0.54142937  0.03775957     0.15980
H451        H  0.29134217  0.57020301  0.17568371     0.15710
N452        N  0.31101719  0.52759170  0.09979902     0.74780
O453        O  0.17844140  0.61009874  0.14155249    -0.38670
O454        O  0.15875714  0.56720143  0.09527951    -0.38610
O455        O  0.32688040  0.52155910  0.14382042    -0.39310
O456        O  0.32628541  0.52831797  0.05373488    -0.39380
C457        C  0.21613149  0.52878601  0.40755211    -0.11660
C458        C  0.24506348  0.53176359  0.44001195     0.05340
C459        C  0.26517179  0.56096711  0.43507485    -0.06950
C460        C  0.25808283  0.58428203  0.39398812    -0.07690
C461        C  0.23130985  0.57919649  0.35738370    -0.02250
C462        C  0.20887201  0.55208697  0.36639912     0.04570
N463        N  0.17943068  0.54729397  0.33299003     0.67080
H464        H  0.19956508  0.50740578  0.41295430     0.15980
H465        H  0.27526076  0.60515939  0.38778289     0.15690
N466        N  0.29401717  0.56672768  0.46845311     0.74780
O467        O  0.16653509  0.51856570  0.32604080    -0.38670
O468        O  0.16480890  0.57192699  0.31366485    -0.38610
O469        O  0.32178958  0.56008515  0.44776414    -0.39310
O470        O  0.29295085  0.58812646  0.50733162    -0.39380
C471        C  0.28829040  0.95713811  0.07498747    -0.11660
C472        C  0.25719593  0.96815882  0.05855864     0.05340
C473        C  0.22822032  0.95070878  0.07802685    -0.06950
C474        C  0.23165080  0.92616892  0.11881752    -0.07690
C475        C  0.26254331  0.91885998  0.14076238    -0.02250
C476        C  0.29149501  0.93347610  0.11729044     0.04570
N477        N  0.32396165  0.92600727  0.13768443     0.67080
H478        H  0.31037608  0.96828134  0.05688685     0.15980
H479        H  0.20973184  0.91427564  0.13686216     0.15690
N480        N  0.19528443  0.95704664  0.05815024     0.74780
O481        O  0.34805764  0.94625801  0.13038505    -0.38670
O482        O  0.32920875  0.89853401  0.16052754    -0.38610
O483        O  0.17227865  0.93541466  0.06441571    -0.39310
O484        O  0.18884136  0.98331295  0.03276310    -0.39380
C485        C  0.23236769  0.94917352  0.42659121    -0.11660
C486        C  0.25949365  0.97121448  0.43613009     0.05340
C487        C  0.28803593  0.96823353  0.40256040    -0.06950
C488        C  0.28821659  0.94492596  0.35875377    -0.07690
C489        C  0.26049667  0.92429052  0.34729986    -0.02250
C490        C  0.23220647  0.92602972  0.38208751     0.04570
N491        N  0.20235123  0.90669669  0.37052174     0.67080
H492        H  0.20995460  0.95196097  0.45045258     0.15980
H493        H  0.31001764  0.94335812  0.33244264     0.15690
N494        N  0.31686103  0.98911632  0.41164681     0.74780
O495        O  0.18300696  0.89858155  0.41003641    -0.38670
O496        O  0.19300742  0.90142506  0.32072887    -0.38610
O497        O  0.33053069  0.98962649  0.45902709    -0.39310
O498        O  0.33220409  0.00164450  0.37043729    -0.39380
C499        C  0.25596823  0.50055692  0.52858091     0.01170
C500        C  0.25485744  0.00172122  0.97150469     0.01170
C501        C  0.23555109  0.59735332  0.70271829     0.03740
C502        C  0.23155354  0.58066494  0.75341341    -0.12410
C503        C  0.23113981  0.59819980  0.80439301     0.01240
C504        C  0.23475712  0.63303319  0.80419997    -0.10940
C505        C  0.23875534  0.65020323  0.75336666     0.03730
C506        C  0.23932358  0.63203578  0.70272242    -0.10360
H507        H  0.23045106  0.55370705  0.75326798     0.09320
H508        H  0.23493908  0.64657530  0.84362614     0.06850
H509        H  0.24347889  0.64464018  0.66332565     0.06700
C510        C  0.26110595  0.90363466  0.79590551     0.03740
C511        C  0.26392654  0.91944950  0.74412621    -0.12410
C512        C  0.26307275  0.90098654  0.69430213     0.01240
C513        C  0.25983080  0.86630417  0.69606909    -0.10940
C514        C  0.25787819  0.84988588  0.74784151     0.03730
C515        C  0.25837472  0.86882402  0.79779838    -0.10360
H516        H  0.26566553  0.94637192  0.74250432     0.09320
H517        H  0.25874746  0.85229981  0.65710943     0.06850
H518        H  0.25640200  0.85670157  0.83802125     0.06700
C519        C  0.99961369  0.74305462  0.97150251     0.01170
C520        C  0.99945505  0.74448391  0.52851599     0.01170
C521        C  0.09838626  0.75816819  0.69886425     0.03740
C522        C  0.08125519  0.76202107  0.74942250    -0.12410
C523        C  0.09795816  0.76295856  0.80082555     0.01240
C524        C  0.13248234  0.76032308  0.80127732    -0.10940
C525        C  0.15012684  0.75648953  0.75079024     0.03730
C526        C  0.13273372  0.75474288  0.69979203    -0.10360
H527        H  0.05447023  0.76284647  0.74878060     0.09320
H528        H  0.14544250  0.76100338  0.84093391     0.06850
H529        H  0.14572818  0.75031687  0.66082078     0.06700
C530        C  0.40081974  0.74596312  0.69928622     0.03740
C531        C  0.41795990  0.74550822  0.74997714    -0.12410
C532        C  0.40103543  0.74513080  0.80108620     0.01240
C533        C  0.36636514  0.74528250  0.80158396    -0.10940
C534        C  0.34864513  0.74584347  0.75082925     0.03730
C535        C  0.36616787  0.74614374  0.69965130    -0.10360
H536        H  0.44479830  0.74536149  0.74964746     0.09320
H537        H  0.35338897  0.74482243  0.84132964     0.06850
H538        H  0.35306653  0.74685236  0.66019698     0.06700
O539        O  0.24454993  0.70358865  0.79797926    -0.71170
O540        O  0.25365314  0.79787097  0.79534811    -0.71390
O541        O  0.20242869  0.75378764  0.79666240    -0.71250
O542        O  0.29604118  0.74783418  0.79665211    -0.71260
O543        O  0.29606640  0.74688257  0.70575336    -0.71220
O544        O  0.20254191  0.75186699  0.70578449    -0.71240
O545        O  0.25329708  0.79633388  0.70446183    -0.71180
O546        O  0.24514180  0.70227616  0.70709166    -0.71370
V547        V  0.24920622  0.75070759  0.79492808     1.35240
V548        V  0.24928161  0.74933710  0.70757856     1.35170
C549        C  0.24305284  0.68684418  0.75288790     0.78070
C550        C  0.25482683  0.81320581  0.74936534     0.78120
C551        C  0.18650600  0.75387321  0.75115453     0.77990
C552        C  0.31208801  0.74675370  0.75113947     0.77950
C553        C  0.05824640  0.72422735  0.64530430    -0.11660
C554        C  0.07901495  0.75270170  0.64691353     0.05340
C555        C  0.07673594  0.77668586  0.60404693    -0.06950
C556        C  0.05267864  0.77157457  0.56192174    -0.07690
C557        C  0.03020521  0.74422268  0.56302971    -0.02250
C558        C  0.03365536  0.71984533  0.60474052     0.04570
N559        N  0.01146783  0.69129340  0.60836825     0.67080
H560        H  0.06014160  0.70590160  0.67802041     0.15980
H561        H  0.04997311  0.79025666  0.53014293     0.15690
N562        N  0.09629661  0.80731731  0.60466581     0.74780
O563        O  0.00274265  0.68017614  0.65559957    -0.38670
O564        O  0.50330228  0.67501796  0.56492212    -0.38610
O565        O  0.12468112  0.80892900  0.62647078    -0.39310
O566        O  0.08606870  0.83258073  0.57992968    -0.39380
C567        C  0.02828504  0.77890461  0.90202822    -0.11660
C568        C  0.02984450  0.75109690  0.93700083     0.05340
C569        C  0.05841114  0.73163479  0.93432126    -0.06950
C570        C  0.08224436  0.73810929  0.89253682    -0.07690
C571        C  0.07834658  0.76353627  0.85349728    -0.02250
C572        C  0.05213902  0.78556759  0.86067577     0.04570
N573        N  0.04903711  0.81426230  0.82569327     0.67080
H574        H  0.00774189  0.79533877  0.90620151     0.15980
H575        H  0.10259854  0.72142628  0.88784828     0.15690
N576        N  0.06332150  0.70453121  0.97141628     0.74780
O577        O  0.02100884  0.82620061  0.81717885    -0.38670
O578        O  0.07448788  0.82946712  0.80703119    -0.38610
O579        O  0.04288566  0.68027505  0.97203675    -0.39310
O580        O  0.09109270  0.70162765  0.99459000    -0.39380
C581        C  0.44496927  0.72180438  0.56483616    -0.11660
C582        C  0.46818523  0.74838880  0.56106463     0.05340
C583        C  0.46465285  0.77653068  0.59615316    -0.06950
C584        C  0.44102247  0.77550119  0.63897082    -0.07690
C585        C  0.42020927  0.74745337  0.64680804    -0.02250
C586        C  0.42117027  0.72066467  0.60798046     0.04570
N587        N  0.40009548  0.69135691  0.61360676     0.67080
H588        H  0.44721845  0.70055709  0.53715463     0.15980
H589        H  0.43940902  0.79644243  0.66763178     0.15690
N590        N  0.48526890  0.80600999  0.58941294     0.74780
O591        O  0.39173731  0.67456831  0.57070129    -0.38670
O592        O  0.39271090  0.68007012  0.66131647    -0.38610
O593        O  0.99205592  0.81662606  0.54102946    -0.39310
O594        O  0.49347423  0.82363587  0.63146158    -0.39380
C595        C  0.44753482  0.76750425  0.93529903    -0.11660
C596        C  0.46811549  0.74011188  0.93888654     0.05340
C597        C  0.46264853  0.71288176  0.90225675    -0.06950
C598        C  0.43923587  0.71471239  0.85970486    -0.07690
C599        C  0.42056831  0.74308129  0.85302835    -0.02250
C600        C  0.42386964  0.76957274  0.89236295     0.04570
N601        N  0.40540406  0.79943222  0.88751736     0.67080
H602        H  0.45195002  0.78863325  0.96294654     0.15980
H603        H  0.43618713  0.69409287  0.83041502     0.15690
N604        N  0.48095658  0.68326811  0.90745702     0.74780
O605        O  0.39911954  0.81649517  0.93067605    -0.38670
O606        O  0.39821245  0.81073924  0.84012127    -0.38610
O607        O  0.97784779  0.66629640  0.95138553    -0.39310
O608        O  0.49428838  0.67058569  0.86479333    -0.39380
C609        C  0.22287179  0.54720666  0.56815616    -0.11660
C610        C  0.25309096  0.53083906  0.56523016     0.05340
C611        C  0.27844050  0.54032370  0.60368201    -0.06950
C612        C  0.27207631  0.56354013  0.64586150    -0.07690
C613        C  0.24115741  0.57770839  0.65134723    -0.02250
C614        C  0.21608936  0.56990010  0.61170495     0.04570
N615        N  0.18333036  0.58286419  0.61663796     0.67080
H616        H  0.20388254  0.54147738  0.53754164     0.15980
H617        H  0.29136004  0.57015522  0.67580762     0.15710
N618        N  0.31109111  0.52753198  0.59998538     0.74780
O619        O  0.17856634  0.61020162  0.64118902    -0.38670
O620        O  0.15889594  0.56733826  0.59481309    -0.38610
O621        O  0.32686694  0.52142178  0.64406375    -0.39310
O622        O  0.32644235  0.52831280  0.55400011    -0.39380
C623        C  0.21597922  0.52878781  0.90745387    -0.11660
C624        C  0.24487451  0.53179842  0.94000603     0.05340
C625        C  0.26495558  0.56102468  0.93511247    -0.06950
C626        C  0.25788564  0.58432394  0.89399035    -0.07690
C627        C  0.23116353  0.57920153  0.85729313    -0.02250
C628        C  0.20874478  0.55206915  0.86625167     0.04570
N629        N  0.17935082  0.54723205  0.83273815     0.67080
H630        H  0.19942792  0.50739211  0.91281216     0.15980
H631        H  0.27504960  0.60521785  0.88783080     0.15690
N632        N  0.29376799  0.56682186  0.96855409     0.74780
O633        O  0.16650743  0.51848532  0.82574226    -0.38670
O634        O  0.16471834  0.57184148  0.81335167    -0.38610
O635        O  0.32156273  0.56019945  0.94793177    -0.39310
O636        O  0.29265220  0.58823961  0.00739696    -0.39380
C637        C  0.28840800  0.95710534  0.57500980    -0.11660
C638        C  0.25731911  0.96814798  0.55859484     0.05340
C639        C  0.22833260  0.95073366  0.57810339    -0.06950
C640        C  0.23175308  0.92619819  0.61890229    -0.07690
C641        C  0.26264422  0.91886117  0.64082036    -0.02250
C642        C  0.29160289  0.93344765  0.61732289     0.04570
N643        N  0.32406708  0.92595585  0.63770239     0.67080
H644        H  0.31049847  0.96823699  0.55690023     0.15980
H645        H  0.20982942  0.91432896  0.63697480     0.15690
N646        N  0.19539543  0.95710672  0.55826566     0.74780
O647        O  0.34818066  0.94617886  0.63035564    -0.38670
O648        O  0.32929326  0.89848881  0.66058226    -0.38610
O649        O  0.17235749  0.93552141  0.56464011    -0.39310
O650        O  0.18898167  0.98335324  0.53279730    -0.39380
C651        C  0.23225002  0.94919767  0.92652728    -0.11660
C652        C  0.25935357  0.97125952  0.93611204     0.05340
C653        C  0.28791959  0.96829742  0.90260288    -0.06950
C654        C  0.28816318  0.94496972  0.85883559    -0.07690
C655        C  0.26047052  0.92430463  0.84733901    -0.02250
C656        C  0.23214344  0.92604208  0.88204218     0.04570
N657        N  0.20230495  0.90669983  0.87039612     0.67080
H658        H  0.20981422  0.95197711  0.95033091     0.15980
H659        H  0.30998768  0.94342120  0.83257583     0.15690
N660        N  0.31670071  0.98923688  0.91168510     0.74780
O661        O  0.18292004  0.89858769  0.90985623    -0.38670
O662        O  0.19301049  0.90142760  0.82057707    -0.38610
O663        O  0.33052998  0.98956165  0.95892866    -0.39310
O664        O  0.33188309  0.00196844  0.87048476    -0.39380
C665        C  0.75582366  0.00057667  0.02856938     0.01170
C666        C  0.75503017  0.50168721  0.47151450     0.01170
C667        C  0.73554356  0.09734216  0.20280679     0.03740
C668        C  0.73160387  0.08065693  0.25351307    -0.12410
C669        C  0.73124370  0.09819535  0.30449036     0.01240
C670        C  0.73485629  0.13302863  0.30428643    -0.10940
C671        C  0.73879195  0.15019557  0.25343762     0.03730
C672        C  0.73930822  0.13202441  0.20279429    -0.10360
H673        H  0.73050149  0.05369892  0.25337341     0.09320
H674        H  0.73507945  0.14657233  0.34371158     0.06850
H675        H  0.74341447  0.14462590  0.16338194     0.06700
C676        C  0.76107684  0.40362810  0.29585347     0.03740
C677        C  0.76385883  0.41944539  0.24407108    -0.12410
C678        C  0.76297936  0.40098340  0.19424444     0.01240
C679        C  0.75974870  0.36629936  0.19601339    -0.10940
C680        C  0.75783357  0.34988038  0.24778866     0.03730
C681        C  0.75835481  0.36881801  0.29774536    -0.10360
H682        H  0.76559801  0.44636776  0.24245180     0.09320
H683        H  0.75865091  0.35229405  0.15705539     0.06850
H684        H  0.75641656  0.35669463  0.33797112     0.06700
C685        C  0.49961335  0.24305506  0.47150403     0.01170
C686        C  0.49945536  0.24448239  0.02851457     0.01170
C687        C  0.59838651  0.25815671  0.19886486     0.03740
C688        C  0.58125574  0.26201331  0.24942249    -0.12410
C689        C  0.59795836  0.26294828  0.30082593     0.01240
C690        C  0.63248180  0.26030616  0.30127853    -0.10940
C691        C  0.65012587  0.25646830  0.25079224     0.03730
C692        C  0.63273306  0.25472458  0.19979351    -0.10360
H693        H  0.55447110  0.26284345  0.24877975     0.09320
H694        H  0.64544178  0.26098525  0.34093528     0.06850
H695        H  0.64572709  0.25029712  0.16082232     0.06700
C696        C  0.90082059  0.24596458  0.19928532     0.03740
C697        C  0.91796096  0.24550855  0.24997600    -0.12410
C698        C  0.90103680  0.24513403  0.30108540     0.01240
C699        C  0.86636670  0.24529000  0.30158362    -0.10940
C700        C  0.84864654  0.24585192  0.25082919     0.03730
C701        C  0.86616886  0.24614888  0.19965087    -0.10360
H702        H  0.94479925  0.24535916  0.24964583     0.09320
H703        H  0.85339071  0.24483152  0.34132952     0.06850
H704        H  0.85306734  0.24685787  0.16019676     0.06700
O705        O  0.74456862  0.20359182  0.29801535    -0.71170
O706        O  0.75363788  0.29787350  0.29531765    -0.71390
O707        O  0.70242858  0.25377599  0.29666482    -0.71250
O708        O  0.79604383  0.24785189  0.29665331    -0.71260
O709        O  0.79606645  0.24687767  0.20575485    -0.71220
O710        O  0.70254003  0.25183770  0.20578768    -0.71240
O711        O  0.75328129  0.29631821  0.20443192    -0.71180
O712        O  0.74515399  0.20225911  0.20712814    -0.71370
V713        V  0.74920764  0.25071040  0.29493020     1.35240
V714        V  0.74928058  0.24932052  0.20758118     1.35170
C715        C  0.74307497  0.18683702  0.25293520     0.78070
C716        C  0.75480284  0.31319951  0.24932617     0.78120
C717        C  0.68650487  0.25385108  0.25115727     0.77990
C718        C  0.81208945  0.24676181  0.25114032     0.77950
C719        C  0.55824476  0.22422032  0.14530253    -0.11660
C720        C  0.57901491  0.25269335  0.14691386     0.05340
C721        C  0.57673746  0.27667899  0.10404917    -0.06950
C722        C  0.55267992  0.27157020  0.06192345    -0.07690
C723        C  0.53020524  0.24421923  0.06302887    -0.02250
C724        C  0.53365388  0.21984066  0.10473812     0.04570
N725        N  0.51146492  0.19128981  0.10836382     0.67080
H726        H  0.56013871  0.20589360  0.17801739     0.15980
H727        H  0.54997540  0.29025327  0.03014600     0.15690
N728        N  0.59630063  0.30730898  0.10466982     0.74780
O729        O  0.50273759  0.18017303  0.15559439    -0.38670
O730        O  0.00330079  0.17501429  0.06491706    -0.38610
O731        O  0.62468237  0.30891973  0.12648524    -0.39310
O732        O  0.58607745  0.33257234  0.07992752    -0.39380
C733        C  0.52828650  0.27890215  0.40202746    -0.11660
C734        C  0.52984449  0.25109528  0.43700224     0.05340
C735        C  0.55841006  0.23163168  0.43432461    -0.06950
C736        C  0.58224333  0.23810334  0.39253947    -0.07690
C737        C  0.57834689  0.26352927  0.35349758    -0.02250
C738        C  0.55214095  0.28556271  0.36067468     0.04570
N739        N  0.54904131  0.31425725  0.32569105     0.67080
H740        H  0.50774421  0.29533751  0.40619947     0.15980
H741        H  0.60259638  0.22141881  0.38785251     0.15690
N742        N  0.56331915  0.20452917  0.47142225     0.74780
O743        O  0.52101412  0.32619798  0.31717672    -0.38670
O744        O  0.57449326  0.32945989  0.30702862    -0.38610
O745        O  0.54288501  0.18027153  0.47203806    -0.39310
O746        O  0.59108933  0.20162709  0.49460020    -0.39380
C747        C  0.94496937  0.22180367  0.06483552    -0.11660
C748        C  0.96818561  0.24838783  0.06106316     0.05340
C749        C  0.96465372  0.27653000  0.09615117    -0.06950
C750        C  0.94102339  0.27550118  0.13896887    -0.07690
C751        C  0.92020996  0.24745369  0.14680700    -0.02250
C752        C  0.92117060  0.22066451  0.10798027     0.04570
N753        N  0.90009566  0.19135693  0.11360779     0.67080
H754        H  0.94721820  0.20055618  0.03715430     0.15980
H755        H  0.93941025  0.29644270  0.16762932     0.15690
N756        N  0.98527033  0.30600891  0.08941060     0.74780
O757        O  0.89173808  0.17456723  0.07070318    -0.38670
O758        O  0.89271011  0.18007149  0.16131801    -0.38610
O759        O  0.49205804  0.31662434  0.04102698    -0.39310
O760        O  0.99347545  0.32363515  0.13145894    -0.39380
C761        C  0.94753522  0.26750553  0.43529999    -0.11660
C762        C  0.96811528  0.24011275  0.43888779     0.05340
C763        C  0.96264830  0.21288292  0.40225738    -0.06950
C764        C  0.93923641  0.21471437  0.35970439    -0.07690
C765        C  0.92056952  0.24308375  0.35302768    -0.02250
C766        C  0.92387065  0.26957472  0.39236317     0.04570
N767        N  0.90540560  0.29943452  0.38751768     0.67080
H768        H  0.95195050  0.28863434  0.46294788     0.15980
H769        H  0.93618762  0.19409506  0.33041415     0.15690
N770        N  0.98095560  0.18326879  0.40745825     0.74780
O771        O  0.89911996  0.31649665  0.43067679    -0.38670
O772        O  0.89821585  0.31074276  0.34012158    -0.38610
O773        O  0.47784674  0.16629764  0.45138737    -0.39310
O774        O  0.99428729  0.17058581  0.36479495    -0.39380
C775        C  0.72272746  0.04717550  0.06830275    -0.11660
C776        C  0.75296410  0.03084657  0.06524783     0.05340
C777        C  0.77835665  0.04035256  0.10361038    -0.06950
C778        C  0.77202443  0.06356369  0.14581344    -0.07690
C779        C  0.74109676  0.07769634  0.15142197    -0.02250
C780        C  0.71597840  0.06985436  0.11188921     0.04570
N781        N  0.68320678  0.08276983  0.11697436     0.67080
H782        H  0.70370276  0.04142942  0.03775938     0.15980
H783        H  0.79134217  0.07020294  0.17568384     0.15710
N784        N  0.81101723  0.02759161  0.09979920     0.74780
O785        O  0.67844152  0.11009886  0.14155216    -0.38670
O786        O  0.65875725  0.06720157  0.09527913    -0.38610
O787        O  0.82688037  0.02155895  0.14382065    -0.39310
O788        O  0.82628553  0.02831793  0.05373512    -0.39380
C789        C  0.71613131  0.02878600  0.40755200    -0.11660
C790        C  0.74506326  0.03176361  0.44001195     0.05340
C791        C  0.76517153  0.06096717  0.43507491    -0.06950
C792        C  0.75808259  0.08428207  0.39398816    -0.07690
C793        C  0.73130967  0.07919650  0.35738363    -0.02250
C794        C  0.70887186  0.05208694  0.36639897     0.04570
N795        N  0.67943058  0.04729389  0.33298976     0.67080
H796        H  0.69956492  0.00740575  0.41295414     0.15980
H797        H  0.77526051  0.10515945  0.38778299     0.15690
N798        N  0.79401688  0.06672777  0.46845324     0.74780
O799        O  0.66653506  0.01856560  0.32604046    -0.38670
O800        O  0.66480879  0.07192689  0.31366451    -0.38610
O801        O  0.82178932  0.06008525  0.44776435    -0.39310
O802        O  0.79295052  0.08812659  0.50733169    -0.39380
C803        C  0.78829033  0.45713816  0.07498749    -0.11660
C804        C  0.75719585  0.46815884  0.05855862     0.05340
C805        C  0.72822026  0.45070874  0.07802677    -0.06950
C806        C  0.73165075  0.42616888  0.11881743    -0.07690
C807        C  0.76254325  0.41885998  0.14076235    -0.02250
C808        C  0.79149495  0.43347616  0.11729046     0.04570
N809        N  0.82396159  0.42600736  0.13768449     0.67080
H810        H  0.81037601  0.46828141  0.05688691     0.15980
H811        H  0.70973179  0.41427557  0.13686202     0.15690
N812        N  0.69528438  0.45704656  0.05815008     0.74780
O813        O  0.84805756  0.44625813  0.13038518    -0.38670
O814        O  0.82920871  0.39853410  0.16052758    -0.38610
O815        O  0.67227865  0.43541449  0.06441535    -0.39310
O816        O  0.68884125  0.48331291  0.03276311    -0.39380
C817        C  0.73236782  0.44917351  0.42659128    -0.11660
C818        C  0.75949382  0.47121445  0.43613012     0.05340
C819        C  0.78803608  0.46823347  0.40256038    -0.06950
C820        C  0.78821667  0.44492591  0.35875372    -0.07690
C821        C  0.76049672  0.42429051  0.34729985    -0.02250
C822        C  0.73220656  0.42602972  0.38208757     0.04570
N823        N  0.70235130  0.40669671  0.37052188     0.67080
H824        H  0.70995475  0.45196098  0.45045269     0.15980
H825        H  0.81001770  0.44335804  0.33244254     0.15690
N826        N  0.81686123  0.48911619  0.41164680     0.74780
O827        O  0.68300706  0.39858157  0.41003660    -0.38670
O828        O  0.69300744  0.40142507  0.32072903    -0.38610
O829        O  0.83053069  0.48962658  0.45902725    -0.39310
O830        O  0.83220447  0.50164413  0.37043728    -0.39380
C831        C  0.75596806  0.00055693  0.52858089     0.01170
C832        C  0.75485730  0.50172124  0.97150468     0.01170
C833        C  0.73555109  0.09735331  0.70271836     0.03740
C834        C  0.73155361  0.08066494  0.75341350    -0.12410
C835        C  0.73113991  0.09819980  0.80439309     0.01240
C836        C  0.73475722  0.13303319  0.80420004    -0.10940
C837        C  0.73875538  0.15020323  0.75336671     0.03730
C838        C  0.73932357  0.13203578  0.70272248    -0.10360
H839        H  0.73045113  0.05370705  0.75326807     0.09320
H840        H  0.73493921  0.14657530  0.84362621     0.06850
H841        H  0.74347883  0.14464017  0.66332569     0.06700
C842        C  0.76110597  0.40363467  0.79590554     0.03740
C843        C  0.76392661  0.41944950  0.74412624    -0.12410
C844        C  0.76307284  0.40098654  0.69430216     0.01240
C845        C  0.75983088  0.36630417  0.69606912    -0.10940
C846        C  0.75787822  0.34988588  0.74784154     0.03730
C847        C  0.75837473  0.36882402  0.79779841    -0.10360
H848        H  0.76566561  0.44637192  0.74250435     0.09320
H849        H  0.75874754  0.35229981  0.65710946     0.06850
H850        H  0.75640197  0.35670158  0.83802127     0.06700
C851        C  0.49961369  0.24305464  0.97150251     0.01170
C852        C  0.49945506  0.24448389  0.52851598     0.01170
C853        C  0.59838627  0.25816815  0.69886425     0.03740
C854        C  0.58125519  0.26202104  0.74942249    -0.12410
C855        C  0.59795817  0.26295854  0.80082554     0.01240
C856        C  0.63248234  0.26032306  0.80127733    -0.10940
C857        C  0.65012685  0.25648951  0.75079025     0.03730
C858        C  0.63273373  0.25474286  0.69979203    -0.10360
H859        H  0.55447023  0.26284644  0.74878059     0.09320
H860        H  0.64544250  0.26100337  0.84093391     0.06850
H861        H  0.64572820  0.25031684  0.66082079     0.06700
C862        C  0.90081975  0.24596312  0.69928622     0.03740
C863        C  0.91795991  0.24550823  0.74997714    -0.12410
C864        C  0.90103544  0.24513082  0.80108620     0.01240
C865        C  0.86636515  0.24528252  0.80158396    -0.10940
C866        C  0.84864514  0.24584348  0.75082925     0.03730
C867        C  0.86616788  0.24614374  0.69965130    -0.10360
H868        H  0.94479831  0.24536149  0.74964745     0.09320
H869        H  0.85338898  0.24482246  0.84132965     0.06850
H870        H  0.85306654  0.24685235  0.66019698     0.06700
O871        O  0.74454996  0.20358866  0.79797930    -0.71170
O872        O  0.75365314  0.29787097  0.79534813    -0.71390
O873        O  0.70242869  0.25378763  0.79666242    -0.71250
O874        O  0.79604119  0.24783419  0.79665213    -0.71260
O875        O  0.79606641  0.24688257  0.70575338    -0.71220
O876        O  0.70254192  0.25186699  0.70578451    -0.71240
O877        O  0.75329709  0.29633389  0.70446185    -0.71180
O878        O  0.74514182  0.20227616  0.70709169    -0.71370
V879        V  0.74920623  0.25070759  0.79492811     1.35240
V880        V  0.74928162  0.24933710  0.70757858     1.35170
C881        C  0.74305286  0.18684418  0.75288793     0.78070
C882        C  0.75482684  0.31320581  0.74936537     0.78120
C883        C  0.68650600  0.25387320  0.75115455     0.77990
C884        C  0.81208802  0.24675371  0.75113948     0.77950
C885        C  0.55824641  0.22422731  0.64530428    -0.11660
C886        C  0.57901496  0.25270166  0.64691352     0.05340
C887        C  0.57673595  0.27668583  0.60404692    -0.06950
C888        C  0.55267865  0.27157454  0.56192174    -0.07690
C889        C  0.53020522  0.24422266  0.56302970    -0.02250
C890        C  0.53365537  0.21984529  0.60474050     0.04570
N891        N  0.51146784  0.19129337  0.60836822     0.67080
H892        H  0.56014162  0.20590156  0.67802039     0.15980
H893        H  0.54997312  0.29025663  0.53014293     0.15690
N894        N  0.59629662  0.30731727  0.60466581     0.74780
O895        O  0.50274267  0.18017610  0.65559954    -0.38670
O896        O  0.00330229  0.17501794  0.56492209    -0.38610
O897        O  0.62468114  0.30892896  0.62647075    -0.39310
O898        O  0.58606870  0.33258070  0.57992971    -0.39380
C899        C  0.52828505  0.27890461  0.90202820    -0.11660
C900        C  0.52984450  0.25109690  0.93700082     0.05340
C901        C  0.55841113  0.23163479  0.93432126    -0.06950
C902        C  0.58224435  0.23810928  0.89253682    -0.07690
C903        C  0.57834658  0.26353626  0.85349727    -0.02250
C904        C  0.55213902  0.28556758  0.86067574     0.04570
N905        N  0.54903712  0.31426228  0.82569323     0.67080
H906        H  0.50774190  0.29533878  0.90620149     0.15980
H907        H  0.60259854  0.22142626  0.88784828     0.15690
N908        N  0.56332148  0.20453121  0.97141629     0.74780
O909        O  0.52100885  0.32620059  0.81717880    -0.38670
O910        O  0.57448789  0.32946710  0.80703114    -0.38610
O911        O  0.54288568  0.18027502  0.97203667    -0.39310
O912        O  0.59109267  0.20162768  0.99459007    -0.39380
C913        C  0.94496928  0.22180436  0.56483617    -0.11660
C914        C  0.96818524  0.24838878  0.56106463     0.05340
C915        C  0.96465286  0.27653066  0.59615315    -0.06950
C916        C  0.94102248  0.27550118  0.63897081    -0.07690
C917        C  0.92020927  0.24745337  0.64680804    -0.02250
C918        C  0.92117028  0.22066466  0.60798047     0.04570
N919        N  0.90009549  0.19135690  0.61360678     0.67080
H920        H  0.94721846  0.20055706  0.53715464     0.15980
H921        H  0.93940903  0.29644242  0.66763176     0.15690
N922        N  0.98526892  0.30600997  0.58941292     0.74780
O923        O  0.89173731  0.17456829  0.57070132    -0.38670
O924        O  0.89271090  0.18007011  0.66131650    -0.38610
O925        O  0.49205594  0.31662604  0.54102944    -0.39310
O926        O  0.99347424  0.32363585  0.63146156    -0.39380
C927        C  0.94753483  0.26750427  0.93529902    -0.11660
C928        C  0.96811548  0.24011190  0.93888655     0.05340
C929        C  0.96264851  0.21288177  0.90225676    -0.06950
C930        C  0.93923586  0.21471240  0.85970487    -0.07690
C931        C  0.92056832  0.24308131  0.85302835    -0.02250
C932        C  0.92386966  0.26957276  0.89236293     0.04570
N933        N  0.90540409  0.29943225  0.88751732     0.67080
H934        H  0.95195004  0.28863328  0.96294652     0.15980
H935        H  0.93618711  0.19409288  0.83041505     0.15690
N936        N  0.98095656  0.18326811  0.90745705     0.74780
O937        O  0.89911958  0.31649522  0.93067600    -0.38670
O938        O  0.89821248  0.31073927  0.84012122    -0.38610
O939        O  0.47784777  0.16629642  0.95138558    -0.39310
O940        O  0.99428834  0.17058567  0.86479336    -0.39380
C941        C  0.72287163  0.04720661  0.56815632    -0.11660
C942        C  0.75309082  0.03083905  0.56523018     0.05340
C943        C  0.77844041  0.04032372  0.60368191    -0.06950
C944        C  0.77207626  0.06354016  0.64586142    -0.07690
C945        C  0.74115736  0.07770838  0.65134728    -0.02250
C946        C  0.71608925  0.06990004  0.61170514     0.04570
N947        N  0.68333022  0.08286408  0.61663834     0.67080
H948        H  0.70388234  0.04147730  0.53754189     0.15980
H949        H  0.79136003  0.07015529  0.67580745     0.15710
N950        N  0.81109103  0.02753204  0.59998516     0.74780
O951        O  0.67856621  0.11020151  0.64118939    -0.38670
O952        O  0.65889579  0.06733809  0.59481364    -0.38610
O953        O  0.82686696  0.02142193  0.64406347    -0.39310
O954        O  0.82644218  0.02831278  0.55399980    -0.39380
C955        C  0.71597935  0.02878782  0.90745395    -0.11660
C956        C  0.74487467  0.03179840  0.94000604     0.05340
C957        C  0.76495576  0.06102464  0.93511245    -0.06950
C958        C  0.75788581  0.08432391  0.89399036    -0.07690
C959        C  0.73116367  0.07920153  0.85729321    -0.02250
C960        C  0.70874490  0.05206917  0.86625178     0.04570
N961        N  0.67935090  0.04723211  0.83273834     0.67080
H962        H  0.69942804  0.00739213  0.91281226     0.15980
H963        H  0.77504978  0.10521780  0.88783078     0.15690
N964        N  0.79376819  0.06682179  0.96855405     0.74780
O965        O  0.66650747  0.01848539  0.82574248    -0.38670
O966        O  0.66471843  0.07184156  0.81335191    -0.38610
O967        O  0.82156292  0.06019937  0.94793169    -0.39310
O968        O  0.79265243  0.08823952  0.00739696    -0.39380
C969        C  0.78840813  0.45710532  0.57500983    -0.11660
C970        C  0.75731925  0.46814798  0.55859488     0.05340
C971        C  0.72833273  0.45073370  0.57810345    -0.06950
C972        C  0.73175319  0.42619822  0.61890234    -0.07690
C973        C  0.76264432  0.41886117  0.64082040    -0.02250
C974        C  0.79160300  0.43344763  0.61732292     0.04570
N975        N  0.82406719  0.42595579  0.63770241     0.67080
H976        H  0.81049861  0.46823696  0.55690027     0.15980
H977        H  0.70982952  0.41432901  0.63697487     0.15690
N978        N  0.69539555  0.45710679  0.55826575     0.74780
O979        O  0.84818079  0.44617878  0.63035563    -0.38670
O980        O  0.82929335  0.39848876  0.66058231    -0.38610
O981        O  0.67235758  0.43552152  0.56464028    -0.39310
O982        O  0.68898182  0.48335331  0.53279735    -0.39380
C983        C  0.73224992  0.44919769  0.92652721    -0.11660
C984        C  0.75935346  0.47125955  0.93611202     0.05340
C985        C  0.78791951  0.46829746  0.90260292    -0.06950
C986        C  0.78816314  0.44496974  0.85883566    -0.07690
C987        C  0.76047050  0.42430463  0.84733903    -0.02250
C988        C  0.73214339  0.42604210  0.88204213     0.04570
N989        N  0.70230491  0.40669984  0.87039599     0.67080
H990        H  0.70981411  0.45197713  0.95033078     0.15980
H991        H  0.80998766  0.44342124  0.83257594     0.15690
N992        N  0.81670060  0.48923695  0.91168515     0.74780
O993        O  0.68291996  0.39858770  0.90985605    -0.38670
O994        O  0.69301050  0.40142762  0.82057692    -0.38610
O995        O  0.83052997  0.48956159  0.95892862    -0.39310
O996        O  0.83188287  0.50196865  0.87048482    -0.39380
C997        C  0.75582356  0.50057669  0.02856937     0.01170
C998        C  0.75502997  0.00168724  0.47151449     0.01170
C999        C  0.73554356  0.59734216  0.20280686     0.03740
C1000       C  0.73160393  0.58065693  0.25351315    -0.12410
C1001       C  0.73124383  0.59819535  0.30449044     0.01240
C1002       C  0.73485640  0.63302863  0.30428650    -0.10940
C1003       C  0.73879198  0.65019557  0.25343768     0.03730
C1004       C  0.73930820  0.63202441  0.20279435    -0.10360
H1005       H  0.73050156  0.55369891  0.25337350     0.09320
H1006       H  0.73507961  0.64657233  0.34371165     0.06850
H1007       H  0.74341439  0.64462589  0.16338198     0.06700
C1008       C  0.76107685  0.90362810  0.29585350     0.03740
C1009       C  0.76385887  0.91944539  0.24407111    -0.12410
C1010       C  0.76297942  0.90098340  0.19424448     0.01240
C1011       C  0.75974875  0.86629936  0.19601342    -0.10940
C1012       C  0.75783360  0.84988038  0.24778870     0.03730
C1013       C  0.75835481  0.86881801  0.29774539    -0.10360
H1014       H  0.76559804  0.94636775  0.24245182     0.09320
H1015       H  0.75865097  0.85229404  0.15705543     0.06850
H1016       H  0.75641653  0.85669464  0.33797115     0.06700
C1017       C  0.49961335  0.74305508  0.47150404     0.01170
C1018       C  0.49945536  0.74448237  0.02851457     0.01170
C1019       C  0.59838652  0.75815669  0.19886487     0.03740
C1020       C  0.58125574  0.76201330  0.24942250    -0.12410
C1021       C  0.59795836  0.76294829  0.30082594     0.01240
C1022       C  0.63248180  0.76030617  0.30127855    -0.10940
C1023       C  0.65012587  0.75646829  0.25079226     0.03730
C1024       C  0.63273307  0.75472456  0.19979353    -0.10360
H1025       H  0.55447110  0.76284344  0.24877976     0.09320
H1026       H  0.64544178  0.76098527  0.34093530     0.06850
H1027       H  0.64572710  0.75029710  0.16082234     0.06700
C1028       C  0.90082059  0.74596457  0.19928532     0.03740
C1029       C  0.91796096  0.74550855  0.24997600    -0.12410
C1030       C  0.90103680  0.74513403  0.30108541     0.01240
C1031       C  0.86636671  0.74529000  0.30158363    -0.10940
C1032       C  0.84864654  0.74585192  0.25082920     0.03730
C1033       C  0.86616886  0.74614887  0.19965089    -0.10360
H1034       H  0.94479925  0.74535915  0.24964582     0.09320
H1035       H  0.85339072  0.74483153  0.34132953     0.06850
H1036       H  0.85306734  0.74685786  0.16019678     0.06700
O1037       O  0.74456864  0.70359183  0.29801539    -0.71170
O1038       O  0.75363788  0.79787350  0.29531768    -0.71390
O1039       O  0.70242859  0.75377598  0.29666485    -0.71250
O1040       O  0.79604384  0.74785189  0.29665334    -0.71260
O1041       O  0.79606645  0.74687767  0.20575488    -0.71220
O1042       O  0.70254003  0.75183770  0.20578771    -0.71240
O1043       O  0.75328130  0.79631821  0.20443196    -0.71180
O1044       O  0.74515399  0.70225911  0.20712818    -0.71370
V1045       V  0.74920764  0.75071041  0.29493024     1.35240
V1046       V  0.74928058  0.74932052  0.20758121     1.35170
C1047       C  0.74307499  0.68683702  0.25293524     0.78070
C1048       C  0.75480285  0.81319951  0.24932620     0.78120
C1049       C  0.68650487  0.75385108  0.25115730     0.77990
C1050       C  0.81208946  0.74676181  0.25114035     0.77950
C1051       C  0.55824476  0.72422030  0.14530255    -0.11660
C1052       C  0.57901491  0.75269333  0.14691387     0.05340
C1053       C  0.57673747  0.77667897  0.10404917    -0.06950
C1054       C  0.55267992  0.77157017  0.06192345    -0.07690
C1055       C  0.53020524  0.74421921  0.06302888    -0.02250
C1056       C  0.53365387  0.71984065  0.10473814     0.04570
N1057       N  0.51146491  0.69128980  0.10836385     0.67080
H1058       H  0.56013871  0.70589359  0.17801741     0.15980
H1059       H  0.54997540  0.79025325  0.03014600     0.15690
N1060       N  0.59630064  0.80730895  0.10466982     0.74780
O1061       O  0.50273758  0.68017303  0.15559443    -0.38670
O1062       O  0.00330077  0.67501428  0.06491710    -0.38610
O1063       O  0.62468239  0.80891969  0.12648520    -0.39310
O1064       O  0.58607746  0.83257232  0.07992755    -0.39380
C1065       C  0.52828650  0.77890217  0.40202746    -0.11660
C1066       C  0.52984450  0.75109529  0.43700225     0.05340
C1067       C  0.55841006  0.73163170  0.43432463    -0.06950
C1068       C  0.58224333  0.73810336  0.39253949    -0.07690
C1069       C  0.57834689  0.76352928  0.35349759    -0.02250
C1070       C  0.55214094  0.78556272  0.36067468     0.04570
N1071       N  0.54904131  0.81425726  0.32569103     0.67080
H1072       H  0.50774421  0.79533753  0.40619947     0.15980
H1073       H  0.60259638  0.72141883  0.38785254     0.15690
N1074       N  0.56331916  0.70452919  0.47142229     0.74780
O1075       O  0.52101411  0.82619798  0.31717670    -0.38670
O1076       O  0.57449325  0.82945989  0.30702860    -0.38610
O1077       O  0.54288501  0.68027156  0.47203812    -0.39310
O1078       O  0.59108934  0.70162712  0.49460022    -0.39380
C1079       C  0.94496937  0.72180366  0.06483552    -0.11660
C1080       C  0.96818561  0.74838782  0.06106316     0.05340
C1081       C  0.96465372  0.77652999  0.09615117    -0.06950
C1082       C  0.94102339  0.77550117  0.13896886    -0.07690
C1083       C  0.92020995  0.74745368  0.14680700    -0.02250
C1084       C  0.92117060  0.72066450  0.10798027     0.04570
N1085       N  0.90009565  0.69135692  0.11360779     0.67080
H1086       H  0.94721820  0.70055617  0.03715430     0.15980
H1087       H  0.93941025  0.79644269  0.16762932     0.15690
N1088       N  0.98527033  0.80600890  0.08941060     0.74780
O1089       O  0.89173808  0.67456722  0.07070318    -0.38670
O1090       O  0.89271010  0.68007148  0.16131801    -0.38610
O1091       O  0.49205804  0.81662433  0.04102698    -0.39310
O1092       O  0.99347545  0.82363514  0.13145893    -0.39380
C1093       C  0.94753522  0.76750554  0.43529999    -0.11660
C1094       C  0.96811528  0.74011276  0.43888780     0.05340
C1095       C  0.96264832  0.71288293  0.40225738    -0.06950
C1096       C  0.93923643  0.71471438  0.35970439    -0.07690
C1097       C  0.92056953  0.74308375  0.35302767    -0.02250
C1098       C  0.92387065  0.76957473  0.39236317     0.04570
N1099       N  0.90540559  0.79943452  0.38751768     0.67080
H1100       H  0.95195049  0.78863435  0.46294788     0.15980
H1101       H  0.93618764  0.69409507  0.33041415     0.15690
N1102       N  0.98095561  0.68326881  0.40745825     0.74780
O1103       O  0.89911995  0.81649664  0.43067679    -0.38670
O1104       O  0.89821585  0.81074277  0.34012158    -0.38610
O1105       O  0.47784676  0.66629766  0.45138738    -0.39310
O1106       O  0.99428732  0.67058583  0.36479496    -0.39380
C1107       C  0.72272734  0.54717547  0.06830287    -0.11660
C1108       C  0.75296401  0.53084658  0.06524784     0.05340
C1109       C  0.77835659  0.54035260  0.10361030    -0.06950
C1110       C  0.77202440  0.56356373  0.14581338    -0.07690
C1111       C  0.74109671  0.57769634  0.15142203    -0.02250
C1112       C  0.71597831  0.56985432  0.11188936     0.04570
N1113       N  0.68320667  0.58276972  0.11697465     0.67080
H1114       H  0.70370261  0.54142937  0.03775957     0.15980
H1115       H  0.79134217  0.57020301  0.17568371     0.15710
N1116       N  0.81101719  0.52759170  0.09979902     0.74780
O1117       O  0.67844140  0.61009874  0.14155250    -0.38670
O1118       O  0.65875714  0.56720143  0.09527952    -0.38610
O1119       O  0.82688040  0.52155910  0.14382042    -0.39310
O1120       O  0.82628541  0.52831797  0.05373488    -0.39380
C1121       C  0.71613149  0.52878601  0.40755211    -0.11660
C1122       C  0.74506348  0.53176358  0.44001195     0.05340
C1123       C  0.76517179  0.56096711  0.43507485    -0.06950
C1124       C  0.75808283  0.58428203  0.39398812    -0.07690
C1125       C  0.73130985  0.57919649  0.35738371    -0.02250
C1126       C  0.70887201  0.55208697  0.36639913     0.04570
N1127       N  0.67943068  0.54729397  0.33299004     0.67080
H1128       H  0.69956508  0.50740578  0.41295430     0.15980
H1129       H  0.77526077  0.60515939  0.38778289     0.15690
N1130       N  0.79401717  0.56672768  0.46845310     0.74780
O1131       O  0.66653509  0.51856570  0.32604080    -0.38670
O1132       O  0.66480890  0.57192699  0.31366485    -0.38610
O1133       O  0.82178959  0.56008515  0.44776414    -0.39310
O1134       O  0.79295086  0.58812646  0.50733162    -0.39380
C1135       C  0.78829040  0.95713811  0.07498747    -0.11660
C1136       C  0.75719593  0.96815882  0.05855864     0.05340
C1137       C  0.72822032  0.95070878  0.07802686    -0.06950
C1138       C  0.73165080  0.92616892  0.11881752    -0.07690
C1139       C  0.76254331  0.91885998  0.14076238    -0.02250
C1140       C  0.79149501  0.93347610  0.11729044     0.04570
N1141       N  0.82396166  0.92600727  0.13768442     0.67080
H1142       H  0.81037609  0.96828134  0.05688685     0.15980
H1143       H  0.70973184  0.91427565  0.13686217     0.15690
N1144       N  0.69528444  0.95704665  0.05815025     0.74780
O1145       O  0.84805765  0.94625800  0.13038504    -0.38670
O1146       O  0.82920875  0.89853401  0.16052754    -0.38610
O1147       O  0.67227865  0.93541466  0.06441573    -0.39310
O1148       O  0.68884136  0.98331296  0.03276310    -0.39380
C1149       C  0.73236768  0.94917352  0.42659121    -0.11660
C1150       C  0.75949365  0.97121448  0.43613009     0.05340
C1151       C  0.78803593  0.96823353  0.40256040    -0.06950
C1152       C  0.78821659  0.94492596  0.35875377    -0.07690
C1153       C  0.76049667  0.92429052  0.34729986    -0.02250
C1154       C  0.73220647  0.92602972  0.38208751     0.04570
N1155       N  0.70235123  0.90669669  0.37052174     0.67080
H1156       H  0.70995459  0.95196097  0.45045258     0.15980
H1157       H  0.81001764  0.94335812  0.33244264     0.15690
N1158       N  0.81686103  0.98911632  0.41164681     0.74780
O1159       O  0.68300696  0.89858155  0.41003641    -0.38670
O1160       O  0.69300742  0.90142506  0.32072887    -0.38610
O1161       O  0.83053069  0.98962649  0.45902709    -0.39310
O1162       O  0.83220408  0.00164450  0.37043729    -0.39380
C1163       C  0.75596823  0.50055692  0.52858091     0.01170
C1164       C  0.75485744  0.00172121  0.97150469     0.01170
C1165       C  0.73555109  0.59735332  0.70271828     0.03740
C1166       C  0.73155354  0.58066494  0.75341341    -0.12410
C1167       C  0.73113980  0.59819980  0.80439301     0.01240
C1168       C  0.73475712  0.63303319  0.80419997    -0.10940
C1169       C  0.73875534  0.65020323  0.75336665     0.03730
C1170       C  0.73932358  0.63203578  0.70272242    -0.10360
H1171       H  0.73045106  0.55370705  0.75326798     0.09320
H1172       H  0.73493907  0.64657530  0.84362614     0.06850
H1173       H  0.74347889  0.64464017  0.66332565     0.06700
C1174       C  0.76110594  0.90363466  0.79590551     0.03740
C1175       C  0.76392654  0.91944950  0.74412621    -0.12410
C1176       C  0.76307274  0.90098654  0.69430212     0.01240
C1177       C  0.75983080  0.86630417  0.69606909    -0.10940
C1178       C  0.75787819  0.84988588  0.74784151     0.03730
C1179       C  0.75837472  0.86882402  0.79779838    -0.10360
H1180       H  0.76566553  0.94637192  0.74250432     0.09320
H1181       H  0.75874746  0.85229981  0.65710943     0.06850
H1182       H  0.75640200  0.85670157  0.83802125     0.06700
C1183       C  0.49961369  0.74305462  0.97150251     0.01170
C1184       C  0.49945505  0.74448391  0.52851599     0.01170
C1185       C  0.59838626  0.75816819  0.69886425     0.03740
C1186       C  0.58125519  0.76202107  0.74942250    -0.12410
C1187       C  0.59795816  0.76295856  0.80082555     0.01240
C1188       C  0.63248234  0.76032308  0.80127732    -0.10940
C1189       C  0.65012684  0.75648953  0.75079024     0.03730
C1190       C  0.63273372  0.75474289  0.69979203    -0.10360
H1191       H  0.55447023  0.76284647  0.74878060     0.09320
H1192       H  0.64544250  0.76100338  0.84093391     0.06850
H1193       H  0.64572818  0.75031687  0.66082078     0.06700
C1194       C  0.90081974  0.74596312  0.69928621     0.03740
C1195       C  0.91795990  0.74550822  0.74997714    -0.12410
C1196       C  0.90103543  0.74513080  0.80108620     0.01240
C1197       C  0.86636514  0.74528250  0.80158396    -0.10940
C1198       C  0.84864513  0.74584347  0.75082925     0.03730
C1199       C  0.86616787  0.74614374  0.69965129    -0.10360
H1200       H  0.94479830  0.74536149  0.74964746     0.09320
H1201       H  0.85338897  0.74482243  0.84132964     0.06850
H1202       H  0.85306653  0.74685236  0.66019698     0.06700
O1203       O  0.74454993  0.70358865  0.79797926    -0.71170
O1204       O  0.75365314  0.79787097  0.79534811    -0.71390
O1205       O  0.70242869  0.75378764  0.79666239    -0.71250
O1206       O  0.79604118  0.74783418  0.79665211    -0.71260
O1207       O  0.79606640  0.74688257  0.70575336    -0.71220
O1208       O  0.70254191  0.75186699  0.70578449    -0.71240
O1209       O  0.75329708  0.79633388  0.70446183    -0.71180
O1210       O  0.74514180  0.70227616  0.70709166    -0.71370
V1211       V  0.74920622  0.75070759  0.79492808     1.35240
V1212       V  0.74928161  0.74933710  0.70757856     1.35170
C1213       C  0.74305284  0.68684418  0.75288789     0.78070
C1214       C  0.75482683  0.81320581  0.74936534     0.78120
C1215       C  0.68650600  0.75387321  0.75115453     0.77990
C1216       C  0.81208801  0.74675370  0.75113947     0.77950
C1217       C  0.55824640  0.72422735  0.64530430    -0.11660
C1218       C  0.57901495  0.75270170  0.64691353     0.05340
C1219       C  0.57673594  0.77668586  0.60404692    -0.06950
C1220       C  0.55267864  0.77157457  0.56192174    -0.07690
C1221       C  0.53020521  0.74422269  0.56302971    -0.02250
C1222       C  0.53365536  0.71984533  0.60474052     0.04570
N1223       N  0.51146783  0.69129340  0.60836825     0.67080
H1224       H  0.56014160  0.70590160  0.67802041     0.15980
H1225       H  0.54997311  0.79025666  0.53014293     0.15690
N1226       N  0.59629661  0.80731731  0.60466581     0.74780
O1227       O  0.50274265  0.68017614  0.65559957    -0.38670
O1228       O  0.00330228  0.67501796  0.56492212    -0.38610
O1229       O  0.62468112  0.80892900  0.62647078    -0.39310
O1230       O  0.58606870  0.83258073  0.57992968    -0.39380
C1231       C  0.52828504  0.77890461  0.90202822    -0.11660
C1232       C  0.52984450  0.75109690  0.93700083     0.05340
C1233       C  0.55841114  0.73163479  0.93432126    -0.06950
C1234       C  0.58224436  0.73810929  0.89253682    -0.07690
C1235       C  0.57834658  0.76353627  0.85349728    -0.02250
C1236       C  0.55213902  0.78556759  0.86067577     0.04570
N1237       N  0.54903711  0.81426230  0.82569327     0.67080
H1238       H  0.50774189  0.79533877  0.90620151     0.15980
H1239       H  0.60259854  0.72142628  0.88784827     0.15690
N1240       N  0.56332150  0.70453121  0.97141628     0.74780
O1241       O  0.52100884  0.82620061  0.81717885    -0.38670
O1242       O  0.57448788  0.82946712  0.80703119    -0.38610
O1243       O  0.54288566  0.68027505  0.97203675    -0.39310
O1244       O  0.59109270  0.70162765  0.99459000    -0.39380
C1245       C  0.94496927  0.72180438  0.56483616    -0.11660
C1246       C  0.96818523  0.74838880  0.56106463     0.05340
C1247       C  0.96465285  0.77653067  0.59615316    -0.06950
C1248       C  0.94102247  0.77550119  0.63897082    -0.07690
C1249       C  0.92020927  0.74745337  0.64680804    -0.02250
C1250       C  0.92117027  0.72066467  0.60798046     0.04570
N1251       N  0.90009548  0.69135691  0.61360676     0.67080
H1252       H  0.94721845  0.70055709  0.53715463     0.15980
H1253       H  0.93940902  0.79644243  0.66763178     0.15690
N1254       N  0.98526890  0.80600999  0.58941294     0.74780
O1255       O  0.89173731  0.67456831  0.57070129    -0.38670
O1256       O  0.89271090  0.68007011  0.66131647    -0.38610
O1257       O  0.49205592  0.81662606  0.54102946    -0.39310
O1258       O  0.99347423  0.82363587  0.63146158    -0.39380
C1259       C  0.94753482  0.76750425  0.93529903    -0.11660
C1260       C  0.96811549  0.74011188  0.93888654     0.05340
C1261       C  0.96264852  0.71288176  0.90225675    -0.06950
C1262       C  0.93923587  0.71471239  0.85970486    -0.07690
C1263       C  0.92056831  0.74308129  0.85302835    -0.02250
C1264       C  0.92386964  0.76957274  0.89236294     0.04570
N1265       N  0.90540406  0.79943222  0.88751736     0.67080
H1266       H  0.95195002  0.78863325  0.96294654     0.15980
H1267       H  0.93618713  0.69409287  0.83041502     0.15690
N1268       N  0.98095658  0.68326811  0.90745702     0.74780
O1269       O  0.89911954  0.81649517  0.93067605    -0.38670
O1270       O  0.89821245  0.81073924  0.84012127    -0.38610
O1271       O  0.47784779  0.66629640  0.95138553    -0.39310
O1272       O  0.99428838  0.67058569  0.86479333    -0.39380
C1273       C  0.72287179  0.54720666  0.56815616    -0.11660
C1274       C  0.75309096  0.53083906  0.56523016     0.05340
C1275       C  0.77844050  0.54032370  0.60368201    -0.06950
C1276       C  0.77207631  0.56354013  0.64586150    -0.07690
C1277       C  0.74115741  0.57770839  0.65134723    -0.02250
C1278       C  0.71608937  0.56990010  0.61170495     0.04570
N1279       N  0.68333036  0.58286419  0.61663796     0.67080
H1280       H  0.70388254  0.54147738  0.53754163     0.15980
H1281       H  0.79136004  0.57015522  0.67580762     0.15710
N1282       N  0.81109112  0.52753198  0.59998538     0.74780
O1283       O  0.67856634  0.61020162  0.64118902    -0.38670
O1284       O  0.65889594  0.56733826  0.59481308    -0.38610
O1285       O  0.82686694  0.52142178  0.64406375    -0.39310
O1286       O  0.82644236  0.52831280  0.55400011    -0.39380
C1287       C  0.71597921  0.52878781  0.90745387    -0.11660
C1288       C  0.74487451  0.53179842  0.94000603     0.05340
C1289       C  0.76495558  0.56102468  0.93511247    -0.06950
C1290       C  0.75788564  0.58432394  0.89399035    -0.07690
C1291       C  0.73116353  0.57920153  0.85729313    -0.02250
C1292       C  0.70874478  0.55206915  0.86625167     0.04570
N1293       N  0.67935082  0.54723204  0.83273815     0.67080
H1294       H  0.69942792  0.50739211  0.91281216     0.15980
H1295       H  0.77504960  0.60521785  0.88783080     0.15690
N1296       N  0.79376798  0.56682186  0.96855409     0.74780
O1297       O  0.66650743  0.51848531  0.82574226    -0.38670
O1298       O  0.66471834  0.57184148  0.81335167    -0.38610
O1299       O  0.82156273  0.56019945  0.94793177    -0.39310
O1300       O  0.79265220  0.58823961  0.00739697    -0.39380
C1301       C  0.78840800  0.95710534  0.57500980    -0.11660
C1302       C  0.75731911  0.96814798  0.55859484     0.05340
C1303       C  0.72833260  0.95073366  0.57810339    -0.06950
C1304       C  0.73175308  0.92619819  0.61890229    -0.07690
C1305       C  0.76264421  0.91886117  0.64082036    -0.02250
C1306       C  0.79160288  0.93344765  0.61732289     0.04570
N1307       N  0.82406708  0.92595585  0.63770239     0.67080
H1308       H  0.81049846  0.96823699  0.55690023     0.15980
H1309       H  0.70982941  0.91432896  0.63697480     0.15690
N1310       N  0.69539542  0.95710672  0.55826566     0.74780
O1311       O  0.84818066  0.94617886  0.63035564    -0.38670
O1312       O  0.82929326  0.89848881  0.66058226    -0.38610
O1313       O  0.67235748  0.93552141  0.56464011    -0.39310
O1314       O  0.68898166  0.98335324  0.53279730    -0.39380
C1315       C  0.73225002  0.94919767  0.92652729    -0.11660
C1316       C  0.75935358  0.97125952  0.93611204     0.05340
C1317       C  0.78791960  0.96829742  0.90260287    -0.06950
C1318       C  0.78816318  0.94496971  0.85883559    -0.07690
C1319       C  0.76047052  0.92430463  0.84733901    -0.02250
C1320       C  0.73214344  0.92604208  0.88204218     0.04570
N1321       N  0.70230496  0.90669983  0.87039613     0.67080
H1322       H  0.70981423  0.95197711  0.95033091     0.15980
H1323       H  0.80998768  0.94342120  0.83257582     0.15690
N1324       N  0.81670072  0.98923687  0.91168509     0.74780
O1325       O  0.68292005  0.89858769  0.90985624    -0.38670
O1326       O  0.69301050  0.90142760  0.82057708    -0.38610
O1327       O  0.83052998  0.98956165  0.95892866    -0.39310
O1328       O  0.83188310  0.00196843  0.87048475    -0.39380
loop_ 
_geom_bond_atom_site_label_1 
_geom_bond_atom_site_label_2 
_geom_bond_distance 
_geom_bond_site_symmetry_2 
_ccdc_geom_bond_type 
C1          C112   1.501       .  S
C1          C472   1.498   1_545  S
C1          C500   1.365   1_554  D
C2          C154   1.498       .  S
C2          C458   1.499       .  S
C2          C499   1.365       .  D
C3            C4   1.397       .  A
C3            C8   1.400       .  A
C3          C115   1.474       .  S
C4            C5   1.402       .  A
C4            H9   1.085       .  S
C5            C6   1.405       .  A
C5          C129   1.483       .  S
C6            C7   1.409       .  A
C6           H10   1.083       .  S
C7            C8   1.408       .  A
C7           C51   1.480       .  S
C8           H11   1.084       .  S
C12          C13   1.399       .  A
C12          C17   1.403       .  A
C12         C157   1.477       .  S
C13          C14   1.397       .  A
C13          H18   1.085       .  S
C14          C15   1.399       .  A
C14         C143   1.473       .  S
C15          C16   1.409       .  A
C15          H19   1.083       .  S
C16          C17   1.409       .  A
C16          C52   1.479       .  S
C17          H20   1.083       .  S
C21          C70   1.501   1_655  S
C21         C762   1.496       .  S
C21         C188   1.362       .  D
C22          C59   1.494   1_655  S
C22         C748   1.494       .  S
C22         C187   1.362   1_554  D
C23          C24   1.400       .  A
C23          C28   1.400       .  A
C23          C56   1.480       .  S
C24          C25   1.402       .  A
C24          H29   1.085       .  S
C25          C26   1.403       .  A
C25          C73   1.485       .  S
C26          C27   1.409       .  A
C26          H30   1.083       .  S
C27          C28   1.408       .  A
C27          C53   1.478       .  S
C28          H31   1.084       .  S
C32          C33   1.397       .  A
C32          C37   1.401       .  A
C32          C87   1.477       .  S
C33          C34   1.398       .  A
C33          H38   1.085       .  S
C34          C35   1.402       .  A
C34         C101   1.477       .  S
C35          C36   1.410       .  A
C35          H39   1.083       .  S
C36          C37   1.411       .  A
C36          C54   1.480       .  S
C37          H40   1.083       .  S
O41          V49   1.902       .  S
O41          C51   1.265       .  A
O42          V49   1.901       .  S
O42          C52   1.265       .  A
O43          V49   1.900       .  S
O43          C53   1.265       .  A
O44          V49   1.901       .  S
O44          C54   1.265       .  A
O45          V50   1.898       .  S
O45          C54   1.264       .  A
O46          V50   1.896       .  S
O46          C53   1.264       .  A
O47          V50   1.896       .  S
O47          C52   1.264       .  A
O48          V50   1.897       .  S
O48          C51   1.264       .  A
V49          V50   2.086       .  T
C55          C56   1.399       .  A
C55          C60   1.396       .  A
C55          H62   1.084       .  S
C56          C57   1.419       .  A
C57          C58   1.410       .  A
C57          N64   1.443       .  S
C58          C59   1.405       .  A
C58          H63   1.082       .  S
C59          C60   1.416       .  A
C60          N61   1.438       .  S
N61          O65   1.263       .  A
N61         O730   1.261       .  A
N64          O67   1.261       .  A
N64          O68   1.263       .  A
O66         N725   1.261       .  A
C69          C70   1.407       .  A
C69          C74   1.400       .  A
C69          H76   1.082       .  S
C70          C71   1.417       .  A
C71          C72   1.406       .  A
C71          N78   1.431       .  S
C72          C73   1.404       .  A
C72          H77   1.084       .  S
C73          C74   1.413       .  A
C74          N75   1.441       .  S
N75          O79   1.263       .  A
N75          O80   1.263       .  A
N78          O81   1.259       .  A
N78          O82   1.263       .  A
C83          C84   1.404       .  A
C83          C88   1.408       .  A
C83          H90   1.082       .  S
C84         C686   1.494       .  S
C84          C85   1.413       .  A
C85          C86   1.397       .  A
C85          N92   1.438       .  S
C86          C87   1.400       .  A
C86          H91   1.084       .  S
C87          C88   1.417       .  A
C88          N89   1.440       .  S
N89          O93   1.263       .  A
N89          O94   1.262       .  A
N92          O96   1.263       .  A
N92         O759   1.262       .  A
O95         N756   1.262       .  A
C97          C98   1.406       .  A
C97         C102   1.409       .  A
C97         H104   1.082       .  S
C98         C685   1.496       .  S
C98          C99   1.408       .  A
C99         C100   1.395       .  A
C99         N106   1.430       .  S
C100        C101   1.400       .  A
C100        H105   1.084       .  S
C101        C102   1.418       .  A
C102        N103   1.441       .  S
N103        O107   1.263       .  A
N103        O108   1.262       .  A
N106        O110   1.262       .  A
N106        O773   1.261       .  A
O109        N770   1.261       .  A
C111        C112   1.408       .  A
C111        C116   1.410       .  A
C111        H118   1.080       .  S
C112        C113   1.419       .  A
C113        C114   1.396       .  A
C113        N120   1.435       .  S
C114        C115   1.396       .  A
C114        H119   1.085       .  S
C115        C116   1.415       .  A
C116        N117   1.443       .  S
N117        O121   1.262       .  A
N117        O122   1.263       .  A
N120        O123   1.263       .  A
N120        O124   1.260       .  A
C125        C126   1.406       .  A
C125        C130   1.403       .  A
C125        H132   1.082       .  S
C126        C334   1.499       .  S
C126        C127   1.413       .  A
C127        C128   1.401       .  A
C127        N134   1.426       .  S
C128        C129   1.402       .  A
C128        H133   1.084       .  S
C129        C130   1.414       .  A
C130        N131   1.442       .  S
N131        O135   1.263       .  A
N131        O136   1.263       .  A
N134        O137   1.261       .  A
N134        O138   1.262       .  A
C139        C140   1.405       .  A
C139        C144   1.405       .  A
C139        H146   1.078       .  S
C140        C333   1.498       .  S
C140        C141   1.426       .  A
C141        C142   1.405       .  A
C141        N148   1.446       .  S
C142        C143   1.397       .  A
C142        H147   1.084       .  S
C143        C144   1.410       .  A
C144        N145   1.443       .  S
N145        O149   1.263       .  A
N145        O150   1.262       .  A
N148        O151   1.263       .  A
N148        O152   1.259       .  A
C153        C154   1.406       .  A
C153        C158   1.406       .  A
C153        H160   1.077       .  S
C154        C155   1.411       .  A
C155        C156   1.399       .  A
C155        N162   1.431       .  S
C156        C157   1.399       .  A
C156        H161   1.084       .  S
C157        C158   1.415       .  A
C158        N159   1.441       .  S
N159        O163   1.263       .  A
N159        O164   1.263       .  A
N162        O165   1.260       .  A
N162        O166   1.263       .  A
C167        C278   1.501       .  S
C167        C638   1.498   1_545  S
C167        C334   1.365       .  D
C168        C624   1.499       .  S
C168        C320   1.498       .  S
C168        C333   1.365   1_556  D
C169        C170   1.397       .  A
C169        C174   1.400       .  A
C169        C281   1.474       .  S
C170        C171   1.402       .  A
C170        H175   1.085       .  S
C171        C172   1.405       .  A
C171        C295   1.483       .  S
C172        C173   1.409       .  A
C172        H176   1.083       .  S
C173        C174   1.408       .  A
C173        C217   1.480       .  S
C174        H177   1.084       .  S
C178        C179   1.399       .  A
C178        C183   1.403       .  A
C178        C323   1.477       .  S
C179        C180   1.397       .  A
C179        H184   1.085       .  S
C180        C181   1.399       .  A
C180        C309   1.473       .  S
C181        C182   1.409       .  A
C181        H185   1.083       .  S
C182        C183   1.409       .  A
C182        C218   1.479       .  S
C183        H186   1.083       .  S
C187        C236   1.501   1_655  S
C187        C928   1.496       .  S
C188        C225   1.494   1_655  S
C188        C914   1.494       .  S
C189        C190   1.400       .  A
C189        C194   1.400       .  A
C189        C222   1.480       .  S
C190        C191   1.402       .  A
C190        H195   1.085       .  S
C191        C192   1.403       .  A
C191        C239   1.485       .  S
C192        C193   1.409       .  A
C192        H196   1.083       .  S
C193        C194   1.408       .  A
C193        C219   1.478       .  S
C194        H197   1.084       .  S
C198        C199   1.397       .  A
C198        C203   1.401       .  A
C198        C253   1.477       .  S
C199        C200   1.398       .  A
C199        H204   1.085       .  S
C200        C201   1.402       .  A
C200        C267   1.477       .  S
C201        C202   1.410       .  A
C201        H205   1.083       .  S
C202        C203   1.411       .  A
C202        C220   1.480       .  S
C203        H206   1.083       .  S
O207        V215   1.902       .  S
O207        C217   1.265       .  A
O208        V215   1.901       .  S
O208        C218   1.265       .  A
O209        V215   1.900       .  S
O209        C219   1.265       .  A
O210        V215   1.901       .  S
O210        C220   1.265       .  A
O211        V216   1.898       .  S
O211        C220   1.264       .  A
O212        V216   1.896       .  S
O212        C219   1.264       .  A
O213        V216   1.896       .  S
O213        C218   1.264       .  A
O214        V216   1.897       .  S
O214        C217   1.264       .  A
V215        V216   2.086       .  T
C221        C222   1.399       .  A
C221        C226   1.396       .  A
C221        H228   1.084       .  S
C222        C223   1.419       .  A
C223        C224   1.410       .  A
C223        N230   1.443       .  S
C224        C225   1.405       .  A
C224        H229   1.082       .  S
C225        C226   1.416       .  A
C226        N227   1.438       .  S
N227        O231   1.263       .  A
N227        O896   1.261       .  A
N230        O233   1.261       .  A
N230        O234   1.263       .  A
O232        N891   1.261       .  A
C235        C236   1.407       .  A
C235        C240   1.400       .  A
C235        H242   1.082       .  S
C236        C237   1.417       .  A
C237        C238   1.406       .  A
C237        N244   1.431       .  S
C238        C239   1.404       .  A
C238        H243   1.084       .  S
C239        C240   1.413       .  A
C240        N241   1.441       .  S
N241        O245   1.263       .  A
N241        O246   1.263       .  A
N244        O247   1.259       .  A
N244        O248   1.263       .  A
C249        C250   1.404       .  A
C249        C254   1.408       .  A
C249        H256   1.082       .  S
C250        C852   1.494       .  S
C250        C251   1.413       .  A
C251        C252   1.397       .  A
C251        N258   1.438       .  S
C252        C253   1.400       .  A
C252        H257   1.084       .  S
C253        C254   1.417       .  A
C254        N255   1.440       .  S
N255        O259   1.263       .  A
N255        O260   1.262       .  A
N258        O925   1.262       .  A
N258        O262   1.263       .  A
O261        N922   1.262       .  A
C263        C264   1.406       .  A
C263        C268   1.409       .  A
C263        H270   1.082       .  S
C264        C851   1.496       .  S
C264        C265   1.408       .  A
C265        C266   1.395       .  A
C265        N272   1.430       .  S
C266        C267   1.400       .  A
C266        H271   1.084       .  S
C267        C268   1.418       .  A
C268        N269   1.441       .  S
N269        O273   1.263       .  A
N269        O274   1.262       .  A
N272        O939   1.261       .  A
N272        O276   1.262       .  A
O275        N936   1.261       .  A
C277        C278   1.408       .  A
C277        C282   1.410       .  A
C277        H284   1.080       .  S
C278        C279   1.419       .  A
C279        C280   1.396       .  A
C279        N286   1.435       .  S
C280        C281   1.396       .  A
C280        H285   1.085       .  S
C281        C282   1.415       .  A
C282        N283   1.443       .  S
N283        O287   1.262       .  A
N283        O288   1.263       .  A
N286        O289   1.263       .  A
N286        O290   1.260       .  A
C291        C292   1.406       .  A
C291        C296   1.404       .  A
C291        H298   1.082       .  S
C292        C500   1.499       .  S
C292        C293   1.413       .  A
C293        C294   1.401       .  A
C293        N300   1.426       .  S
C294        C295   1.402       .  A
C294        H299   1.084       .  S
C295        C296   1.414       .  A
C296        N297   1.442       .  S
N297        O301   1.263       .  A
N297        O302   1.263       .  A
N300        O303   1.261       .  A
N300        O304   1.262   1_556  A
C305        C306   1.405       .  A
C305        C310   1.405       .  A
C305        H312   1.078       .  S
C306        C499   1.498       .  S
C306        C307   1.426       .  A
C307        C308   1.405       .  A
C307        N314   1.446       .  S
C308        C309   1.397       .  A
C308        H313   1.084       .  S
C309        C310   1.410       .  A
C310        N311   1.443       .  S
N311        O315   1.263       .  A
N311        O316   1.262       .  A
N314        O317   1.263       .  A
N314        O318   1.259       .  A
C319        C320   1.406       .  A
C319        C324   1.406       .  A
C319        H326   1.077       .  S
C320        C321   1.411       .  A
C321        C322   1.398       .  A
C321        N328   1.430       .  S
C322        C323   1.399       .  A
C322        H327   1.084       .  S
C323        C324   1.415       .  A
C324        N325   1.441       .  S
N325        O329   1.263       .  A
N325        O330   1.263       .  A
N328        O331   1.260       .  A
N328        O332   1.263       .  A
C333        C444   1.501       .  S
C334        C486   1.498   1_545  S
C335        C336   1.397       .  A
C335        C340   1.400       .  A
C335        C447   1.474       .  S
C336        C337   1.402       .  A
C336        H341   1.085       .  S
C337        C338   1.405       .  A
C337        C461   1.483       .  S
C338        C339   1.409       .  A
C338        H342   1.083       .  S
C339        C340   1.408       .  A
C339        C383   1.480       .  S
C340        H343   1.084       .  S
C344        C345   1.399       .  A
C344        C349   1.403       .  A
C344        C489   1.477       .  S
C345        C346   1.397       .  A
C345        H350   1.085       .  S
C346        C347   1.399       .  A
C346        C475   1.473       .  S
C347        C348   1.409       .  A
C347        H351   1.083       .  S
C348        C349   1.409       .  A
C348        C384   1.479       .  S
C349        H352   1.083       .  S
C353        C402   1.501   1_655  S
C353       C1094   1.496       .  S
C353        C520   1.362       .  D
C354        C391   1.494   1_655  S
C354       C1080   1.494       .  S
C354        C519   1.362   1_554  D
C355        C356   1.400       .  A
C355        C360   1.400       .  A
C355        C388   1.480       .  S
C356        C357   1.402       .  A
C356        H361   1.085       .  S
C357        C358   1.403       .  A
C357        C405   1.485       .  S
C358        C359   1.409       .  A
C358        H362   1.083       .  S
C359        C360   1.408       .  A
C359        C385   1.478       .  S
C360        H363   1.084       .  S
C364        C365   1.397       .  A
C364        C369   1.401       .  A
C364        C419   1.477       .  S
C365        C366   1.398       .  A
C365        H370   1.085       .  S
C366        C367   1.402       .  A
C366        C433   1.477       .  S
C367        C368   1.410       .  A
C367        H371   1.083       .  S
C368        C369   1.411       .  A
C368        C386   1.480       .  S
C369        H372   1.083       .  S
O373        V381   1.902       .  S
O373        C383   1.265       .  A
O374        V381   1.901       .  S
O374        C384   1.265       .  A
O375        V381   1.900       .  S
O375        C385   1.265       .  A
O376        V381   1.901       .  S
O376        C386   1.265       .  A
O377        V382   1.898       .  S
O377        C386   1.264       .  A
O378        V382   1.896       .  S
O378        C385   1.264       .  A
O379        V382   1.896       .  S
O379        C384   1.264       .  A
O380        V382   1.897       .  S
O380        C383   1.264       .  A
V381        V382   2.086       .  T
C387        C388   1.399       .  A
C387        C392   1.396       .  A
C387        H394   1.084       .  S
C388        C389   1.419       .  A
C389        C390   1.410       .  A
C389        N396   1.443       .  S
C390        C391   1.405       .  A
C390        H395   1.082       .  S
C391        C392   1.416       .  A
C392        N393   1.438       .  S
N393        O397   1.263       .  A
N393       O1062   1.261       .  A
N396        O399   1.261       .  A
N396        O400   1.263       .  A
O398       N1057   1.261       .  A
C401        C402   1.407       .  A
C401        C406   1.400       .  A
C401        H408   1.082       .  S
C402        C403   1.417       .  A
C403        C404   1.406       .  A
C403        N410   1.431       .  S
C404        C405   1.404       .  A
C404        H409   1.084       .  S
C405        C406   1.413       .  A
C406        N407   1.441       .  S
N407        O411   1.263       .  A
N407        O412   1.263       .  A
N410        O413   1.259       .  A
N410        O414   1.263       .  A
C415        C416   1.404       .  A
C415        C420   1.408       .  A
C415        H422   1.082       .  S
C416       C1018   1.494       .  S
C416        C417   1.413       .  A
C417        C418   1.397       .  A
C417        N424   1.438       .  S
C418        C419   1.400       .  A
C418        H423   1.084       .  S
C419        C420   1.417       .  A
C420        N421   1.440       .  S
N421        O425   1.263       .  A
N421        O426   1.262       .  A
N424       O1091   1.262       .  A
N424        O428   1.263       .  A
O427       N1088   1.262       .  A
C429        C430   1.406       .  A
C429        C434   1.409       .  A
C429        H436   1.082       .  S
C430       C1017   1.496       .  S
C430        C431   1.408       .  A
C431        C432   1.395       .  A
C431        N438   1.430       .  S
C432        C433   1.400       .  A
C432        H437   1.084       .  S
C433        C434   1.418       .  A
C434        N435   1.441       .  S
N435        O439   1.263       .  A
N435        O440   1.262       .  A
N438       O1105   1.261       .  A
N438        O442   1.262       .  A
O441       N1102   1.261       .  A
C443        C444   1.408       .  A
C443        C448   1.410       .  A
C443        H450   1.080       .  S
C444        C445   1.419       .  A
C445        C446   1.396       .  A
C445        N452   1.435       .  S
C446        C447   1.396       .  A
C446        H451   1.085       .  S
C447        C448   1.415       .  A
C448        N449   1.443       .  S
N449        O453   1.262       .  A
N449        O454   1.263       .  A
N452        O455   1.263       .  A
N452        O456   1.260       .  A
C457        C458   1.406       .  A
C457        C462   1.403       .  A
C457        H464   1.082       .  S
C458        C459   1.413       .  A
C459        C460   1.401       .  A
C459        N466   1.426       .  S
C460        C461   1.402       .  A
C460        H465   1.084       .  S
C461        C462   1.414       .  A
C462        N463   1.442       .  S
N463        O467   1.263       .  A
N463        O468   1.263       .  A
N466        O469   1.261       .  A
N466        O470   1.262       .  A
C471        C472   1.405       .  A
C471        C476   1.405       .  A
C471        H478   1.078       .  S
C472        C473   1.426       .  A
C473        C474   1.405       .  A
C473        N480   1.446       .  S
C474        C475   1.397       .  A
C474        H479   1.084       .  S
C475        C476   1.410       .  A
C476        N477   1.443       .  S
N477        O481   1.263       .  A
N477        O482   1.262       .  A
N480        O483   1.263       .  A
N480        O484   1.259       .  A
C485        C486   1.406       .  A
C485        C490   1.406       .  A
C485        H492   1.077       .  S
C486        C487   1.411       .  A
C487        C488   1.399       .  A
C487        N494   1.431       .  S
C488        C489   1.399       .  A
C488        H493   1.084       .  S
C489        C490   1.415       .  A
C490        N491   1.441       .  S
N491        O495   1.263       .  A
N491        O496   1.263       .  A
N494        O497   1.260       .  A
N494        O498   1.263   1_565  A
C499        C610   1.501       .  S
C500        C652   1.498   1_545  S
C501        C502   1.397       .  A
C501        C506   1.400       .  A
C501        C613   1.474       .  S
C502        C503   1.402       .  A
C502        H507   1.085       .  S
C503        C504   1.405       .  A
C503        C627   1.483       .  S
C504        C505   1.409       .  A
C504        H508   1.083       .  S
C505        C506   1.408       .  A
C505        C549   1.480       .  S
C506        H509   1.084       .  S
C510        C511   1.399       .  A
C510        C515   1.403       .  A
C510        C655   1.477       .  S
C511        C512   1.397       .  A
C511        H516   1.085       .  S
C512        C513   1.399       .  A
C512        C641   1.473       .  S
C513        C514   1.409       .  A
C513        H517   1.083       .  S
C514        C515   1.409       .  A
C514        C550   1.479       .  S
C515        H518   1.083       .  S
C519        C568   1.501   1_655  S
C519       C1260   1.496       .  S
C520        C557   1.494   1_655  S
C520       C1246   1.494       .  S
C521        C522   1.400       .  A
C521        C526   1.400       .  A
C521        C554   1.480       .  S
C522        C523   1.402       .  A
C522        H527   1.085       .  S
C523        C524   1.403       .  A
C523        C571   1.485       .  S
C524        C525   1.409       .  A
C524        H528   1.083       .  S
C525        C526   1.408       .  A
C525        C551   1.478       .  S
C526        H529   1.084       .  S
C530        C531   1.397       .  A
C530        C535   1.401       .  A
C530        C585   1.477       .  S
C531        C532   1.398       .  A
C531        H536   1.085       .  S
C532        C533   1.402       .  A
C532        C599   1.477       .  S
C533        C534   1.410       .  A
C533        H537   1.083       .  S
C534        C535   1.411       .  A
C534        C552   1.480       .  S
C535        H538   1.083       .  S
O539        V547   1.902       .  S
O539        C549   1.265       .  A
O540        V547   1.901       .  S
O540        C550   1.265       .  A
O541        V547   1.900       .  S
O541        C551   1.265       .  A
O542        V547   1.901       .  S
O542        C552   1.265       .  A
O543        V548   1.898       .  S
O543        C552   1.264       .  A
O544        V548   1.896       .  S
O544        C551   1.264       .  A
O545        V548   1.896       .  S
O545        C550   1.264       .  A
O546        V548   1.897       .  S
O546        C549   1.264       .  A
V547        V548   2.086       .  T
C553        C554   1.399       .  A
C553        C558   1.396       .  A
C553        H560   1.084       .  S
C554        C555   1.419       .  A
C555        C556   1.410       .  A
C555        N562   1.443       .  S
C556        C557   1.405       .  A
C556        H561   1.082       .  S
C557        C558   1.416       .  A
C558        N559   1.438       .  S
N559        O563   1.263       .  A
N559       O1228   1.261       .  A
N562        O565   1.261       .  A
N562        O566   1.263       .  A
O564       N1223   1.261       .  A
C567        C568   1.407       .  A
C567        C572   1.400       .  A
C567        H574   1.082       .  S
C568        C569   1.417       .  A
C569        C570   1.406       .  A
C569        N576   1.431       .  S
C570        C571   1.404       .  A
C570        H575   1.084       .  S
C571        C572   1.413       .  A
C572        N573   1.441       .  S
N573        O577   1.263       .  A
N573        O578   1.263       .  A
N576        O579   1.259       .  A
N576        O580   1.263       .  A
C581        C582   1.404       .  A
C581        C586   1.408       .  A
C581        H588   1.082       .  S
C582       C1184   1.494       .  S
C582        C583   1.413       .  A
C583        C584   1.397       .  A
C583        N590   1.438       .  S
C584        C585   1.400       .  A
C584        H589   1.084       .  S
C585        C586   1.417       .  A
C586        N587   1.440       .  S
N587        O591   1.263       .  A
N587        O592   1.262       .  A
N590       O1257   1.262       .  A
N590        O594   1.263       .  A
O593       N1254   1.262       .  A
C595        C596   1.406       .  A
C595        C600   1.409       .  A
C595        H602   1.082       .  S
C596       C1183   1.496       .  S
C596        C597   1.408       .  A
C597        C598   1.395       .  A
C597        N604   1.430       .  S
C598        C599   1.400       .  A
C598        H603   1.084       .  S
C599        C600   1.418       .  A
C600        N601   1.441       .  S
N601        O605   1.263       .  A
N601        O606   1.262       .  A
N604       O1271   1.261       .  A
N604        O608   1.262       .  A
O607       N1268   1.261       .  A
C609        C610   1.408       .  A
C609        C614   1.410       .  A
C609        H616   1.080       .  S
C610        C611   1.419       .  A
C611        C612   1.396       .  A
C611        N618   1.435       .  S
C612        C613   1.396       .  A
C612        H617   1.085       .  S
C613        C614   1.415       .  A
C614        N615   1.443       .  S
N615        O619   1.262       .  A
N615        O620   1.263       .  A
N618        O621   1.263       .  A
N618        O622   1.260       .  A
C623        C624   1.406       .  A
C623        C628   1.404       .  A
C623        H630   1.082       .  S
C624        C625   1.413       .  A
C625        C626   1.401       .  A
C625        N632   1.426       .  S
C626        C627   1.402       .  A
C626        H631   1.084       .  S
C627        C628   1.414       .  A
C628        N629   1.442       .  S
N629        O633   1.263       .  A
N629        O634   1.263       .  A
N632        O635   1.261       .  A
N632        O636   1.262   1_556  A
C637        C638   1.405       .  A
C637        C642   1.405       .  A
C637        H644   1.078       .  S
C638        C639   1.426       .  A
C639        C640   1.405       .  A
C639        N646   1.446       .  S
C640        C641   1.397       .  A
C640        H645   1.084       .  S
C641        C642   1.410       .  A
C642        N643   1.443       .  S
N643        O647   1.263       .  A
N643        O648   1.262       .  A
N646        O649   1.263       .  A
N646        O650   1.259       .  A
C651        C652   1.406       .  A
C651        C656   1.406       .  A
C651        H658   1.077       .  S
C652        C653   1.411       .  A
C653        C654   1.398       .  A
C653        N660   1.430       .  S
C654        C655   1.399       .  A
C654        H659   1.084       .  S
C655        C656   1.415       .  A
C656        N657   1.441       .  S
N657        O661   1.263       .  A
N657        O662   1.263       .  A
N660        O663   1.260       .  A
N660        O664   1.263   1_565  A
C665        C776   1.501       .  S
C665       C1136   1.498   1_545  S
C665       C1164   1.365   1_554  D
C666       C1122   1.499       .  S
C666        C818   1.498       .  S
C666       C1163   1.365       .  D
C667        C668   1.397       .  A
C667        C672   1.400       .  A
C667        C779   1.474       .  S
C668        C669   1.402       .  A
C668        H673   1.085       .  S
C669        C670   1.405       .  A
C669        C793   1.483       .  S
C670        C671   1.409       .  A
C670        H674   1.083       .  S
C671        C672   1.408       .  A
C671        C715   1.480       .  S
C672        H675   1.084       .  S
C676        C677   1.399       .  A
C676        C681   1.403       .  A
C676        C821   1.477       .  S
C677        C678   1.397       .  A
C677        H682   1.085       .  S
C678        C679   1.399       .  A
C678        C807   1.473       .  S
C679        C680   1.409       .  A
C679        H683   1.083       .  S
C680        C681   1.409       .  A
C680        C716   1.479       .  S
C681        H684   1.083       .  S
C685        C734   1.501       .  S
C685        C852   1.362       .  D
C686        C723   1.494       .  S
C686        C851   1.362   1_554  D
C687        C688   1.400       .  A
C687        C692   1.400       .  A
C687        C720   1.480       .  S
C688        C689   1.402       .  A
C688        H693   1.085       .  S
C689        C690   1.403       .  A
C689        C737   1.485       .  S
C690        C691   1.409       .  A
C690        H694   1.083       .  S
C691        C692   1.408       .  A
C691        C717   1.478       .  S
C692        H695   1.084       .  S
C696        C697   1.397       .  A
C696        C701   1.401       .  A
C696        C751   1.477       .  S
C697        C698   1.398       .  A
C697        H702   1.085       .  S
C698        C699   1.402       .  A
C698        C765   1.477       .  S
C699        C700   1.410       .  A
C699        H703   1.083       .  S
C700        C701   1.411       .  A
C700        C718   1.480       .  S
C701        H704   1.083       .  S
O705        V713   1.902       .  S
O705        C715   1.265       .  A
O706        V713   1.901       .  S
O706        C716   1.265       .  A
O707        V713   1.900       .  S
O707        C717   1.265       .  A
O708        V713   1.901       .  S
O708        C718   1.265       .  A
O709        V714   1.898       .  S
O709        C718   1.264       .  A
O710        V714   1.896       .  S
O710        C717   1.264       .  A
O711        V714   1.896       .  S
O711        C716   1.264       .  A
O712        V714   1.897       .  S
O712        C715   1.264       .  A
V713        V714   2.086       .  T
C719        C720   1.399       .  A
C719        C724   1.396       .  A
C719        H726   1.084       .  S
C720        C721   1.419       .  A
C721        C722   1.410       .  A
C721        N728   1.443       .  S
C722        C723   1.405       .  A
C722        H727   1.082       .  S
C723        C724   1.416       .  A
C724        N725   1.438       .  S
N725        O729   1.263       .  A
N728        O731   1.261       .  A
N728        O732   1.263       .  A
C733        C734   1.407       .  A
C733        C738   1.400       .  A
C733        H740   1.082       .  S
C734        C735   1.417       .  A
C735        C736   1.406       .  A
C735        N742   1.431       .  S
C736        C737   1.404       .  A
C736        H741   1.084       .  S
C737        C738   1.413       .  A
C738        N739   1.441       .  S
N739        O743   1.263       .  A
N739        O744   1.263       .  A
N742        O745   1.259       .  A
N742        O746   1.263       .  A
C747        C748   1.404       .  A
C747        C752   1.408       .  A
C747        H754   1.082       .  S
C748        C749   1.413       .  A
C749        C750   1.397       .  A
C749        N756   1.438       .  S
C750        C751   1.400       .  A
C750        H755   1.084       .  S
C751        C752   1.417       .  A
C752        N753   1.440       .  S
N753        O757   1.263       .  A
N753        O758   1.262       .  A
N756        O760   1.263       .  A
C761        C762   1.406       .  A
C761        C766   1.409       .  A
C761        H768   1.082       .  S
C762        C763   1.408       .  A
C763        C764   1.395       .  A
C763        N770   1.430       .  S
C764        C765   1.400       .  A
C764        H769   1.084       .  S
C765        C766   1.418       .  A
C766        N767   1.441       .  S
N767        O771   1.263       .  A
N767        O772   1.262       .  A
N770        O774   1.262       .  A
C775        C776   1.408       .  A
C775        C780   1.410       .  A
C775        H782   1.080       .  S
C776        C777   1.419       .  A
C777        C778   1.396       .  A
C777        N784   1.435       .  S
C778        C779   1.396       .  A
C778        H783   1.085       .  S
C779        C780   1.415       .  A
C780        N781   1.443       .  S
N781        O785   1.262       .  A
N781        O786   1.263       .  A
N784        O787   1.263       .  A
N784        O788   1.260       .  A
C789        C790   1.406       .  A
C789        C794   1.403       .  A
C789        H796   1.082       .  S
C790        C998   1.499       .  S
C790        C791   1.413       .  A
C791        C792   1.401       .  A
C791        N798   1.426       .  S
C792        C793   1.402       .  A
C792        H797   1.084       .  S
C793        C794   1.414       .  A
C794        N795   1.442       .  S
N795        O799   1.263       .  A
N795        O800   1.263       .  A
N798        O801   1.261       .  A
N798        O802   1.262       .  A
C803        C804   1.405       .  A
C803        C808   1.405       .  A
C803        H810   1.078       .  S
C804        C997   1.498       .  S
C804        C805   1.426       .  A
C805        C806   1.405       .  A
C805        N812   1.446       .  S
C806        C807   1.397       .  A
C806        H811   1.084       .  S
C807        C808   1.410       .  A
C808        N809   1.443       .  S
N809        O813   1.263       .  A
N809        O814   1.262       .  A
N812        O815   1.263       .  A
N812        O816   1.259       .  A
C817        C818   1.406       .  A
C817        C822   1.406       .  A
C817        H824   1.077       .  S
C818        C819   1.411       .  A
C819        C820   1.399       .  A
C819        N826   1.431       .  S
C820        C821   1.399       .  A
C820        H825   1.084       .  S
C821        C822   1.415       .  A
C822        N823   1.441       .  S
N823        O827   1.263       .  A
N823        O828   1.263       .  A
N826        O829   1.260       .  A
N826        O830   1.263       .  A
C831        C942   1.501       .  S
C831       C1302   1.498   1_545  S
C831        C998   1.365       .  D
C832       C1288   1.499       .  S
C832        C984   1.498       .  S
C832        C997   1.365   1_556  D
C833        C834   1.397       .  A
C833        C838   1.400       .  A
C833        C945   1.474       .  S
C834        C835   1.402       .  A
C834        H839   1.085       .  S
C835        C836   1.405       .  A
C835        C959   1.483       .  S
C836        C837   1.409       .  A
C836        H840   1.083       .  S
C837        C838   1.408       .  A
C837        C881   1.480       .  S
C838        H841   1.084       .  S
C842        C843   1.399       .  A
C842        C847   1.403       .  A
C842        C987   1.477       .  S
C843        C844   1.397       .  A
C843        H848   1.085       .  S
C844        C845   1.399       .  A
C844        C973   1.473       .  S
C845        C846   1.409       .  A
C845        H849   1.083       .  S
C846        C847   1.409       .  A
C846        C882   1.479       .  S
C847        H850   1.083       .  S
C851        C900   1.501       .  S
C852        C889   1.494       .  S
C853        C854   1.400       .  A
C853        C858   1.400       .  A
C853        C886   1.480       .  S
C854        C855   1.402       .  A
C854        H859   1.085       .  S
C855        C856   1.403       .  A
C855        C903   1.485       .  S
C856        C857   1.409       .  A
C856        H860   1.083       .  S
C857        C858   1.408       .  A
C857        C883   1.478       .  S
C858        H861   1.084       .  S
C862        C863   1.397       .  A
C862        C867   1.401       .  A
C862        C917   1.477       .  S
C863        C864   1.398       .  A
C863        H868   1.085       .  S
C864        C865   1.402       .  A
C864        C931   1.477       .  S
C865        C866   1.410       .  A
C865        H869   1.083       .  S
C866        C867   1.411       .  A
C866        C884   1.480       .  S
C867        H870   1.083       .  S
O871        V879   1.902       .  S
O871        C881   1.265       .  A
O872        V879   1.901       .  S
O872        C882   1.265       .  A
O873        V879   1.900       .  S
O873        C883   1.265       .  A
O874        V879   1.901       .  S
O874        C884   1.265       .  A
O875        V880   1.898       .  S
O875        C884   1.264       .  A
O876        V880   1.896       .  S
O876        C883   1.264       .  A
O877        V880   1.896       .  S
O877        C882   1.264       .  A
O878        V880   1.897       .  S
O878        C881   1.264       .  A
V879        V880   2.086       .  T
C885        C886   1.399       .  A
C885        C890   1.396       .  A
C885        H892   1.084       .  S
C886        C887   1.419       .  A
C887        C888   1.410       .  A
C887        N894   1.443       .  S
C888        C889   1.405       .  A
C888        H893   1.082       .  S
C889        C890   1.416       .  A
C890        N891   1.438       .  S
N891        O895   1.263       .  A
N894        O897   1.261       .  A
N894        O898   1.263       .  A
C899        C900   1.407       .  A
C899        C904   1.400       .  A
C899        H906   1.082       .  S
C900        C901   1.417       .  A
C901        C902   1.406       .  A
C901        N908   1.431       .  S
C902        C903   1.404       .  A
C902        H907   1.084       .  S
C903        C904   1.413       .  A
C904        N905   1.441       .  S
N905        O909   1.263       .  A
N905        O910   1.263       .  A
N908        O911   1.259       .  A
N908        O912   1.263       .  A
C913        C914   1.404       .  A
C913        C918   1.408       .  A
C913        H920   1.082       .  S
C914        C915   1.413       .  A
C915        C916   1.397       .  A
C915        N922   1.438       .  S
C916        C917   1.400       .  A
C916        H921   1.084       .  S
C917        C918   1.417       .  A
C918        N919   1.440       .  S
N919        O923   1.263       .  A
N919        O924   1.262       .  A
N922        O926   1.263       .  A
C927        C928   1.406       .  A
C927        C932   1.409       .  A
C927        H934   1.082       .  S
C928        C929   1.408       .  A
C929        C930   1.395       .  A
C929        N936   1.430       .  S
C930        C931   1.400       .  A
C930        H935   1.084       .  S
C931        C932   1.418       .  A
C932        N933   1.441       .  S
N933        O937   1.263       .  A
N933        O938   1.262       .  A
N936        O940   1.262       .  A
C941        C942   1.408       .  A
C941        C946   1.410       .  A
C941        H948   1.080       .  S
C942        C943   1.419       .  A
C943        C944   1.396       .  A
C943        N950   1.435       .  S
C944        C945   1.396       .  A
C944        H949   1.085       .  S
C945        C946   1.415       .  A
C946        N947   1.443       .  S
N947        O951   1.262       .  A
N947        O952   1.263       .  A
N950        O953   1.263       .  A
N950        O954   1.260       .  A
C955        C956   1.406       .  A
C955        C960   1.404       .  A
C955        H962   1.082       .  S
C956       C1164   1.499       .  S
C956        C957   1.413       .  A
C957        C958   1.401       .  A
C957        N964   1.426       .  S
C958        C959   1.402       .  A
C958        H963   1.084       .  S
C959        C960   1.414       .  A
C960        N961   1.442       .  S
N961        O965   1.263       .  A
N961        O966   1.263       .  A
N964        O967   1.261       .  A
N964        O968   1.262   1_556  A
C969        C970   1.405       .  A
C969        C974   1.405       .  A
C969        H976   1.078       .  S
C970       C1163   1.498       .  S
C970        C971   1.426       .  A
C971        C972   1.405       .  A
C971        N978   1.446       .  S
C972        C973   1.397       .  A
C972        H977   1.084       .  S
C973        C974   1.410       .  A
C974        N975   1.443       .  S
N975        O979   1.263       .  A
N975        O980   1.262       .  A
N978        O981   1.263       .  A
N978        O982   1.259       .  A
C983        C984   1.406       .  A
C983        C988   1.406       .  A
C983        H990   1.077       .  S
C984        C985   1.411       .  A
C985        C986   1.398       .  A
C985        N992   1.430       .  S
C986        C987   1.399       .  A
C986        H991   1.084       .  S
C987        C988   1.415       .  A
C988        N989   1.441       .  S
N989        O993   1.263       .  A
N989        O994   1.263       .  A
N992        O995   1.260       .  A
N992        O996   1.263       .  A
C997       C1108   1.501       .  S
C998       C1150   1.498   1_545  S
C999       C1000   1.397       .  A
C999       C1004   1.400       .  A
C999       C1111   1.474       .  S
C1000      C1001   1.402       .  A
C1000      H1005   1.085       .  S
C1001      C1002   1.405       .  A
C1001      C1125   1.483       .  S
C1002      C1003   1.409       .  A
C1002      H1006   1.083       .  S
C1003      C1004   1.408       .  A
C1003      C1047   1.480       .  S
C1004      H1007   1.084       .  S
C1008      C1009   1.399       .  A
C1008      C1013   1.403       .  A
C1008      C1153   1.477       .  S
C1009      C1010   1.397       .  A
C1009      H1014   1.085       .  S
C1010      C1011   1.399       .  A
C1010      C1139   1.473       .  S
C1011      C1012   1.409       .  A
C1011      H1015   1.083       .  S
C1012      C1013   1.409       .  A
C1012      C1048   1.479       .  S
C1013      H1016   1.083       .  S
C1017      C1066   1.501       .  S
C1017      C1184   1.362       .  D
C1018      C1055   1.494       .  S
C1018      C1183   1.362   1_554  D
C1019      C1020   1.400       .  A
C1019      C1024   1.400       .  A
C1019      C1052   1.480       .  S
C1020      C1021   1.402       .  A
C1020      H1025   1.085       .  S
C1021      C1022   1.403       .  A
C1021      C1069   1.485       .  S
C1022      C1023   1.409       .  A
C1022      H1026   1.083       .  S
C1023      C1024   1.408       .  A
C1023      C1049   1.478       .  S
C1024      H1027   1.084       .  S
C1028      C1029   1.397       .  A
C1028      C1033   1.401       .  A
C1028      C1083   1.477       .  S
C1029      C1030   1.398       .  A
C1029      H1034   1.085       .  S
C1030      C1031   1.402       .  A
C1030      C1097   1.477       .  S
C1031      C1032   1.410       .  A
C1031      H1035   1.083       .  S
C1032      C1033   1.411       .  A
C1032      C1050   1.480       .  S
C1033      H1036   1.083       .  S
O1037      V1045   1.902       .  S
O1037      C1047   1.265       .  A
O1038      V1045   1.901       .  S
O1038      C1048   1.265       .  A
O1039      V1045   1.900       .  S
O1039      C1049   1.265       .  A
O1040      V1045   1.901       .  S
O1040      C1050   1.265       .  A
O1041      V1046   1.898       .  S
O1041      C1050   1.264       .  A
O1042      V1046   1.896       .  S
O1042      C1049   1.264       .  A
O1043      V1046   1.896       .  S
O1043      C1048   1.264       .  A
O1044      V1046   1.897       .  S
O1044      C1047   1.264       .  A
V1045      V1046   2.086       .  T
C1051      C1052   1.399       .  A
C1051      C1056   1.396       .  A
C1051      H1058   1.084       .  S
C1052      C1053   1.419       .  A
C1053      C1054   1.410       .  A
C1053      N1060   1.443       .  S
C1054      C1055   1.405       .  A
C1054      H1059   1.082       .  S
C1055      C1056   1.416       .  A
C1056      N1057   1.438       .  S
N1057      O1061   1.263       .  A
N1060      O1063   1.261       .  A
N1060      O1064   1.263       .  A
C1065      C1066   1.407       .  A
C1065      C1070   1.400       .  A
C1065      H1072   1.082       .  S
C1066      C1067   1.417       .  A
C1067      C1068   1.406       .  A
C1067      N1074   1.431       .  S
C1068      C1069   1.404       .  A
C1068      H1073   1.084       .  S
C1069      C1070   1.413       .  A
C1070      N1071   1.441       .  S
N1071      O1075   1.263       .  A
N1071      O1076   1.263       .  A
N1074      O1077   1.259       .  A
N1074      O1078   1.263       .  A
C1079      C1080   1.404       .  A
C1079      C1084   1.408       .  A
C1079      H1086   1.082       .  S
C1080      C1081   1.413       .  A
C1081      C1082   1.397       .  A
C1081      N1088   1.438       .  S
C1082      C1083   1.400       .  A
C1082      H1087   1.084       .  S
C1083      C1084   1.417       .  A
C1084      N1085   1.440       .  S
N1085      O1089   1.263       .  A
N1085      O1090   1.262       .  A
N1088      O1092   1.263       .  A
C1093      C1094   1.406       .  A
C1093      C1098   1.409       .  A
C1093      H1100   1.082       .  S
C1094      C1095   1.408       .  A
C1095      C1096   1.395       .  A
C1095      N1102   1.430       .  S
C1096      C1097   1.400       .  A
C1096      H1101   1.084       .  S
C1097      C1098   1.418       .  A
C1098      N1099   1.441       .  S
N1099      O1103   1.263       .  A
N1099      O1104   1.262       .  A
N1102      O1106   1.262       .  A
C1107      C1108   1.408       .  A
C1107      C1112   1.410       .  A
C1107      H1114   1.080       .  S
C1108      C1109   1.419       .  A
C1109      C1110   1.396       .  A
C1109      N1116   1.435       .  S
C1110      C1111   1.396       .  A
C1110      H1115   1.085       .  S
C1111      C1112   1.415       .  A
C1112      N1113   1.443       .  S
N1113      O1117   1.262       .  A
N1113      O1118   1.263       .  A
N1116      O1119   1.263       .  A
N1116      O1120   1.260       .  A
C1121      C1122   1.406       .  A
C1121      C1126   1.403       .  A
C1121      H1128   1.082       .  S
C1122      C1123   1.413       .  A
C1123      C1124   1.401       .  A
C1123      N1130   1.426       .  S
C1124      C1125   1.402       .  A
C1124      H1129   1.084       .  S
C1125      C1126   1.414       .  A
C1126      N1127   1.442       .  S
N1127      O1131   1.263       .  A
N1127      O1132   1.263       .  A
N1130      O1133   1.261       .  A
N1130      O1134   1.262       .  A
C1135      C1136   1.405       .  A
C1135      C1140   1.405       .  A
C1135      H1142   1.078       .  S
C1136      C1137   1.426       .  A
C1137      C1138   1.405       .  A
C1137      N1144   1.446       .  S
C1138      C1139   1.397       .  A
C1138      H1143   1.084       .  S
C1139      C1140   1.410       .  A
C1140      N1141   1.443       .  S
N1141      O1145   1.263       .  A
N1141      O1146   1.262       .  A
N1144      O1147   1.263       .  A
N1144      O1148   1.259       .  A
C1149      C1150   1.406       .  A
C1149      C1154   1.406       .  A
C1149      H1156   1.077       .  S
C1150      C1151   1.411       .  A
C1151      C1152   1.399       .  A
C1151      N1158   1.431       .  S
C1152      C1153   1.399       .  A
C1152      H1157   1.084       .  S
C1153      C1154   1.415       .  A
C1154      N1155   1.441       .  S
N1155      O1159   1.263       .  A
N1155      O1160   1.263       .  A
N1158      O1161   1.260       .  A
N1158      O1162   1.263   1_565  A
C1163      C1274   1.501       .  S
C1164      C1316   1.498   1_545  S
C1165      C1166   1.397       .  A
C1165      C1170   1.400       .  A
C1165      C1277   1.474       .  S
C1166      C1167   1.402       .  A
C1166      H1171   1.085       .  S
C1167      C1168   1.405       .  A
C1167      C1291   1.483       .  S
C1168      C1169   1.409       .  A
C1168      H1172   1.083       .  S
C1169      C1170   1.408       .  A
C1169      C1213   1.480       .  S
C1170      H1173   1.084       .  S
C1174      C1175   1.399       .  A
C1174      C1179   1.403       .  A
C1174      C1319   1.477       .  S
C1175      C1176   1.397       .  A
C1175      H1180   1.085       .  S
C1176      C1177   1.399       .  A
C1176      C1305   1.473       .  S
C1177      C1178   1.409       .  A
C1177      H1181   1.083       .  S
C1178      C1179   1.409       .  A
C1178      C1214   1.479       .  S
C1179      H1182   1.083       .  S
C1183      C1232   1.501       .  S
C1184      C1221   1.494       .  S
C1185      C1186   1.400       .  A
C1185      C1190   1.400       .  A
C1185      C1218   1.480       .  S
C1186      C1187   1.402       .  A
C1186      H1191   1.085       .  S
C1187      C1188   1.403       .  A
C1187      C1235   1.485       .  S
C1188      C1189   1.409       .  A
C1188      H1192   1.083       .  S
C1189      C1190   1.408       .  A
C1189      C1215   1.478       .  S
C1190      H1193   1.084       .  S
C1194      C1195   1.397       .  A
C1194      C1199   1.401       .  A
C1194      C1249   1.477       .  S
C1195      C1196   1.398       .  A
C1195      H1200   1.085       .  S
C1196      C1197   1.402       .  A
C1196      C1263   1.477       .  S
C1197      C1198   1.410       .  A
C1197      H1201   1.083       .  S
C1198      C1199   1.411       .  A
C1198      C1216   1.480       .  S
C1199      H1202   1.083       .  S
O1203      V1211   1.902       .  S
O1203      C1213   1.265       .  A
O1204      V1211   1.901       .  S
O1204      C1214   1.265       .  A
O1205      V1211   1.900       .  S
O1205      C1215   1.265       .  A
O1206      V1211   1.901       .  S
O1206      C1216   1.265       .  A
O1207      V1212   1.898       .  S
O1207      C1216   1.264       .  A
O1208      V1212   1.896       .  S
O1208      C1215   1.264       .  A
O1209      V1212   1.896       .  S
O1209      C1214   1.264       .  A
O1210      V1212   1.897       .  S
O1210      C1213   1.264       .  A
V1211      V1212   2.086       .  T
C1217      C1218   1.399       .  A
C1217      C1222   1.396       .  A
C1217      H1224   1.084       .  S
C1218      C1219   1.419       .  A
C1219      C1220   1.410       .  A
C1219      N1226   1.443       .  S
C1220      C1221   1.405       .  A
C1220      H1225   1.082       .  S
C1221      C1222   1.416       .  A
C1222      N1223   1.438       .  S
N1223      O1227   1.263       .  A
N1226      O1229   1.261       .  A
N1226      O1230   1.263       .  A
C1231      C1232   1.407       .  A
C1231      C1236   1.400       .  A
C1231      H1238   1.082       .  S
C1232      C1233   1.417       .  A
C1233      C1234   1.406       .  A
C1233      N1240   1.431       .  S
C1234      C1235   1.404       .  A
C1234      H1239   1.084       .  S
C1235      C1236   1.413       .  A
C1236      N1237   1.441       .  S
N1237      O1241   1.263       .  A
N1237      O1242   1.263       .  A
N1240      O1243   1.259       .  A
N1240      O1244   1.263       .  A
C1245      C1246   1.404       .  A
C1245      C1250   1.408       .  A
C1245      H1252   1.082       .  S
C1246      C1247   1.413       .  A
C1247      C1248   1.397       .  A
C1247      N1254   1.438       .  S
C1248      C1249   1.400       .  A
C1248      H1253   1.084       .  S
C1249      C1250   1.417       .  A
C1250      N1251   1.440       .  S
N1251      O1255   1.263       .  A
N1251      O1256   1.262       .  A
N1254      O1258   1.263       .  A
C1259      C1260   1.406       .  A
C1259      C1264   1.409       .  A
C1259      H1266   1.082       .  S
C1260      C1261   1.408       .  A
C1261      C1262   1.395       .  A
C1261      N1268   1.430       .  S
C1262      C1263   1.400       .  A
C1262      H1267   1.084       .  S
C1263      C1264   1.418       .  A
C1264      N1265   1.441       .  S
N1265      O1269   1.263       .  A
N1265      O1270   1.262       .  A
N1268      O1272   1.262       .  A
C1273      C1274   1.408       .  A
C1273      C1278   1.410       .  A
C1273      H1280   1.080       .  S
C1274      C1275   1.419       .  A
C1275      C1276   1.396       .  A
C1275      N1282   1.435       .  S
C1276      C1277   1.396       .  A
C1276      H1281   1.085       .  S
C1277      C1278   1.415       .  A
C1278      N1279   1.443       .  S
N1279      O1283   1.262       .  A
N1279      O1284   1.263       .  A
N1282      O1285   1.263       .  A
N1282      O1286   1.260       .  A
C1287      C1288   1.406       .  A
C1287      C1292   1.404       .  A
C1287      H1294   1.082       .  S
C1288      C1289   1.413       .  A
C1289      C1290   1.401       .  A
C1289      N1296   1.426       .  S
C1290      C1291   1.402       .  A
C1290      H1295   1.084       .  S
C1291      C1292   1.414       .  A
C1292      N1293   1.442       .  S
N1293      O1297   1.263       .  A
N1293      O1298   1.263       .  A
N1296      O1299   1.261       .  A
N1296      O1300   1.262   1_556  A
C1301      C1302   1.405       .  A
C1301      C1306   1.405       .  A
C1301      H1308   1.078       .  S
C1302      C1303   1.426       .  A
C1303      C1304   1.405       .  A
C1303      N1310   1.446       .  S
C1304      C1305   1.397       .  A
C1304      H1309   1.084       .  S
C1305      C1306   1.410       .  A
C1306      N1307   1.443       .  S
N1307      O1311   1.263       .  A
N1307      O1312   1.262       .  A
N1310      O1313   1.263       .  A
N1310      O1314   1.259       .  A
C1315      C1316   1.406       .  A
C1315      C1320   1.406       .  A
C1315      H1322   1.077       .  S
C1316      C1317   1.411       .  A
C1317      C1318   1.398       .  A
C1317      N1324   1.430       .  S
C1318      C1319   1.399       .  A
C1318      H1323   1.084       .  S
C1319      C1320   1.415       .  A
C1320      N1321   1.441       .  S
N1321      O1325   1.263       .  A
N1321      O1326   1.263       .  A
N1324      O1327   1.260       .  A
N1324      O1328   1.263   1_565  A
