geometry optimzed in LAMMPS
_audit_creation_date              2020-11-30 
_audit_creation_method            'lammps2cif' 
_symmetry_space_group_name_H-M    'P1' 
_symmetry_Int_Tables_number       1 
_symmetry_cell_setting            triclinic 
loop_ 
_symmetry_equiv_pos_as_xyz 
  x,y,z 
_cell_length_a                    31.32436658 
_cell_length_b                    31.30780689613475 
_cell_length_c                    25.37391621865346 
_cell_angle_alpha                 90.0140792834647 
_cell_angle_beta                  89.80249586155134 
_cell_angle_gamma                 119.85079764296727 
loop_ 
_atom_site_label 
_atom_site_type_symbol 
_atom_site_fract_x 
_atom_site_fract_y 
_atom_site_fract_z 
_atom_site_charge 
C1          C  0.08549805  0.76011544  0.18747732     0.79700
N2          N  0.04211381  0.75832926  0.18012856    -0.78600
C3          C  0.00044713  0.71498683  0.17067384     0.82200
N4          N  0.00213251  0.67195232  0.17036737    -0.78500
C5          C  0.04640127  0.67402188  0.17895578     0.82200
N6          N  0.08730739  0.71811400  0.18659191    -0.80300
C7          C  0.40038752  0.08067158  0.19307725     0.79700
N8          N  0.44272539  0.07965640  0.19747440    -0.78600
C9          C  0.48715719  0.12110080  0.19262146     0.82200
N10         N  0.48941189  0.16519609  0.18112381    -0.78500
C11         C  0.44600231  0.16591635  0.17615530     0.82200
N12         N  0.40272473  0.12386565  0.18316284    -0.80300
C13         C  0.06478525  0.40540228  0.34075181     0.79700
N14         N  0.06717165  0.44864763  0.33084337    -0.78600
C15         C  0.11074001  0.49085387  0.32551175     0.82200
N16         N  0.15398379  0.49019492  0.33245411    -0.78500
C17         C  0.15131994  0.44589389  0.34365935     0.82200
N18         N  0.10688154  0.40443911  0.34680616    -0.80300
C19         C  0.74812025  0.08414073  0.34414627     0.79700
N20         N  0.74695862  0.04106265  0.35095753    -0.78600
C21         C  0.70432918  0.99759857  0.34960629     0.82200
N22         N  0.66074920  0.99709207  0.34016432    -0.78500
C23         C  0.66216741  0.04142533  0.33275558     0.82200
N24         N  0.70570672  0.08393511  0.33566387    -0.80300
O25         O  0.52692859  0.07414048  0.19581165    -0.72300
O26         O  0.59097718  0.02133721  0.27960286    -0.72500
O27         O  0.50189185  0.01997679  0.28248761    -0.72400
O28         O  0.61496827  0.07586986  0.19261540    -0.72400
O29         O  0.64994339  0.14301364  0.23887250    -0.72300
O30         O  0.53610953  0.08793518  0.32745281    -0.72400
O31         O  0.62305929  0.08857292  0.32578792    -0.72300
O32         O  0.56105396  0.14223660  0.24053710    -0.72500
V33         V  0.55945597  0.04922539  0.23837772     1.35200
V34         V  0.59186221  0.11406942  0.28230711     1.35200
C35         C  0.52936522  0.11474878  0.20712551     0.76900
C36         C  0.62109112  0.04816425  0.31458390     0.77000
C37         C  0.49814908  0.04713274  0.31692766     0.76900
C38         C  0.65329900  0.11627531  0.20363089     0.76800
O39         O  0.13811744  0.65439135  0.27964251    -0.72300
O40         O  0.09298342  0.54798030  0.18119432    -0.72500
O41         O  0.09403346  0.63540047  0.18662348    -0.72400
O42         O  0.13696338  0.56501830  0.27439101    -0.72400
O43         O  0.06501661  0.53037645  0.31193790    -0.72300
O44         O  0.02120499  0.59758964  0.22222156    -0.72400
O45         O  0.02109229  0.50971610  0.21873849    -0.72300
O46         O  0.06535810  0.61698817  0.31513243    -0.72500
V47         V  0.11413574  0.59992194  0.23104778     1.35200
V48         V  0.04471112  0.56443648  0.26638400     1.35200
C49         C  0.10729492  0.65544395  0.31124725     0.76900
C50         C  0.05117257  0.50936593  0.18564699     0.77000
C51         C  0.05209118  0.63157062  0.19291105     0.76900
C52         C  0.10617339  0.53263058  0.30542789     0.76800
C53         C  0.73168833  0.07536104  0.01512887     0.79700
N54         N  0.77417963  0.11799006  0.02035344    -0.78600
C55         C  0.81824351  0.11993215  0.01761025     0.82200
N56         N  0.81995040  0.07750131  0.00792456    -0.78500
C57         C  0.77526541  0.03311247  0.50409195     0.82200
N58         N  0.73226804  0.03319275  0.50967901    -0.80300
C59         C  0.41087500  0.07147827  0.52988686     0.79700
N60         N  0.41244133  0.11499985  0.03390990    -0.78600
C61         C  0.37152746  0.11870406  0.02689971     0.82200
N62         N  0.32744625  0.07743344  0.51437692    -0.78500
C63         C  0.32631113  0.03296306  0.50994493     0.82200
N64         N  0.36784618  0.03101018  0.51882091    -0.80300
C65         C  0.06694388  0.41301235  0.97608595     0.79700
N66         N  0.02627784  0.37074297  0.98895223    -0.78600
C67         C  0.02744140  0.32913316  0.99997183     0.82200
N68         N  0.07137259  0.32927953  0.99687663    -0.78500
C69         C  0.11400330  0.37204094  0.48853925     0.82200
N70         N  0.11147735  0.41356224  0.48042344    -0.80300
C71         C  0.07039483  0.73397613  0.98762569     0.79700
N72         N  0.02821968  0.73403653  0.99856216    -0.78600
C73         C  0.02840922  0.77670337  0.00926462     0.82200
N74         N  0.07207185  0.82073416  0.00743555    -0.78500
C75         C  0.11577021  0.82107580  0.49692045     0.82200
N76         N  0.11424119  0.77753199  0.49030143    -0.80300
C77         C  0.08670961  0.42129766  0.14052353     0.79700
N78         N  0.08663995  0.46332494  0.15108958    -0.78600
C79         C  0.04415728  0.46351601  0.16055984     0.82200
N80         N  0.99991963  0.41992418  0.15768234    -0.78500
C81         C  0.00029419  0.37703554  0.14640443     0.82200
N82         N  0.04384877  0.37850847  0.13933967    -0.80300
C83         C  0.40620593  0.42288853  0.15665570     0.79700
N84         N  0.40590380  0.38005779  0.15084481    -0.78600
C85         C  0.44735007  0.37712477  0.15590886     0.82200
N86         N  0.49102211  0.41869161  0.16842126    -0.78500
C87         C  0.49131324  0.46259109  0.17431180     0.82200
N88         N  0.44899992  0.46374683  0.16771398    -0.80300
O89         O  0.39959806  0.20469508  0.16031413    -0.72300
O90         O  0.34994939  0.26133569  0.06211452    -0.72500
O91         O  0.34969459  0.17309531  0.07092744    -0.72400
O92         O  0.39959074  0.29103974  0.15163849    -0.72400
O93         O  0.46972032  0.32357875  0.11041791    -0.72300
O94         O  0.41941927  0.20549628  0.02893707    -0.72400
O95         O  0.42000465  0.29303231  0.02087921    -0.72300
O96         O  0.46921931  0.23509372  0.11832828    -0.72500
V97         V  0.37615289  0.23317549  0.11048991     1.35200
V98         V  0.44316879  0.26367717  0.07028738     1.35200
C99         C  0.44048663  0.20630427  0.15329293     0.76900
C100        C  0.37879247  0.29080694  0.02762716     0.77000
C101        C  0.37817233  0.16787500  0.03949462     0.76900
C102        C  0.44102289  0.32851422  0.14183771     0.76800
C103        C  0.74866671  0.75871446  0.18958707     0.79700
N104        N  0.70590142  0.71630153  0.19613738    -0.78600
C105        C  0.70383311  0.67201964  0.19485890     0.82200
N106        N  0.74622222  0.67007259  0.18537984    -0.78500
C107        C  0.78982599  0.71363702  0.17822704     0.82200
N108        N  0.79002072  0.75682401  0.18137552    -0.80300
C109        C  0.74420630  0.07796640  0.18341643     0.79700
N110        N  0.70249522  0.07944207  0.19043058    -0.78600
C111        C  0.70119935  0.12182345  0.18736042     0.82200
N112        N  0.74378537  0.16519353  0.17608001    -0.78500
C113        C  0.78681262  0.16389021  0.16879272     0.82200
N114        N  0.78614816  0.12035237  0.17315964    -0.80300
O115        O  0.87438220  0.76076147  0.15917019    -0.72300
O116        O  0.98159422  0.80230148  0.06289608    -0.72500
O117        O  0.89378007  0.80334190  0.06491399    -0.72400
O118        O  0.96084455  0.76080369  0.15699038    -0.72400
O119        O  0.92571131  0.68808229  0.12149966    -0.72300
O120        O  0.85654708  0.73000240  0.03092179    -0.72400
O121        O  0.94335566  0.72956708  0.02754270    -0.72300
O122        O  0.83682068  0.68743766  0.12520668    -0.72500
V123        V  0.92684758  0.78030437  0.11036334     1.35200
V124        V  0.89127364  0.71020248  0.07686750     1.35200
C125        C  0.83593434  0.71876781  0.15596734     0.76900
C126        C  0.98226040  0.77094531  0.03196474     0.77000
C127        C  0.86042239  0.77218542  0.03539577     0.76900
C128        C  0.95858883  0.71958171  0.15133136     0.76800
O129        O  0.89271434  0.17241870  0.06528740    -0.72300
O130        O  0.95953461  0.29021757  0.14720142    -0.72500
O131        O  0.87257383  0.20285267  0.15473439    -0.72400
O132        O  0.98068007  0.26056757  0.05833243    -0.72400
O133        O  0.94262427  0.29222745  0.01647809    -0.72300
O134        O  0.83447639  0.23430049  0.11265420    -0.72400
O135        O  0.92269170  0.32306054  0.10527404    -0.72300
O136        O  0.85661710  0.20594535  0.02311609    -0.72500
V137        V  0.92555943  0.23214611  0.10577159     1.35200
V138        V  0.88982503  0.26321837  0.06522898     1.36100
C139        C  0.86013638  0.16815016  0.03296932     0.76900
C140        C  0.95658441  0.32819230  0.13605398     0.77000
C141        C  0.83347021  0.20460603  0.14712318     0.76900
C142        C  0.98147008  0.28993188  0.02370903     0.76800
C143        C  0.41399985  0.41688345  0.99265048     0.79700
N144        N  0.37150210  0.41413101  0.48352629    -0.78600
C145        C  0.32827788  0.37144867  0.48680139     0.82200
N146        N  0.32776974  0.32897988  0.99777583    -0.78500
C147        C  0.37231900  0.33093320  0.00526690     0.82200
N148        N  0.41458744  0.37482407  0.00172278    -0.80300
C149        C  0.73300752  0.73557511  0.00725861     0.79700
N150        N  0.73321344  0.77792167  0.50027293    -0.78600
C151        C  0.77585104  0.82156011  0.50016460     0.82200
N152        N  0.82050715  0.82256277  0.00896089    -0.78500
C153        C  0.81927114  0.77832715  0.01614581     0.82200
N154        N  0.77567581  0.73592051  0.01427609    -0.80300
C155        C  0.06704149  0.74162556  0.35023814     0.79700
N156        N  0.10928406  0.78465540  0.35579706    -0.78600
C157        C  0.15377737  0.78740286  0.35225156     0.82200
N158        N  0.15611695  0.74548569  0.34069135    -0.78500
C159        C  0.11271609  0.70154282  0.33444563     0.82200
N160        N  0.06939187  0.70066260  0.34056761    -0.80300
C161        C  0.74722091  0.74108249  0.34555994     0.79700
N162        N  0.74767396  0.78410895  0.35044493    -0.78600
C163        C  0.70526660  0.78570151  0.35256419     0.82200
N164        N  0.66093481  0.74291074  0.34741116    -0.78500
C165        C  0.66079062  0.69920141  0.34149629     0.82200
N166        N  0.70391731  0.69905815  0.34154453    -0.80300
O167        O  0.75227934  0.87174031  0.36145557    -0.72300
O168        O  0.79875961  0.98440961  0.45044117    -0.72500
O169        O  0.79998310  0.89634418  0.45175809    -0.72400
O170        O  0.75073873  0.95797987  0.35956950    -0.72400
O171        O  0.68051439  0.92433668  0.40068838    -0.72300
O172        O  0.72895252  0.86084034  0.49127489    -0.72400
O173        O  0.72851346  0.94751546  0.49148450    -0.72300
O174        O  0.68117029  0.83620343  0.40087994    -0.72500
V175        V  0.77401622  0.92698599  0.40648387     1.35200
V176        V  0.70622502  0.89298803  0.44536620     1.35200
C177        C  0.71108669  0.83335477  0.36953958     0.76900
C178        C  0.76947487  0.98626587  0.48358507     0.77000
C179        C  0.77035590  0.86382746  0.48344543     0.76900
C180        C  0.70958207  0.95553710  0.36759478     0.76800
C181        C  0.40636561  0.08482438  0.33178714     0.79700
N182        N  0.44842288  0.08367380  0.32679583    -0.78600
C183        C  0.45016000  0.04165309  0.33208447     0.82200
N184        N  0.40776552  0.99836933  0.34374049    -0.78500
C185        C  0.36461390  0.99953243  0.34984833     0.82200
N186        N  0.36473946  0.04256567  0.34313997    -0.80300
C187        C  0.40150821  0.40190743  0.31654122     0.79700
N188        N  0.35965742  0.40268490  0.32541892    -0.78600
C189        C  0.36001635  0.44539617  0.33491267     0.82200
N190        N  0.40393440  0.48920803  0.33390498    -0.78500
C191        C  0.44660868  0.48814984  0.32401614     0.82200
N192        N  0.44465689  0.44438438  0.31686716    -0.80300
O193        O  0.31213777  0.46676387  0.39199384    -0.72300
O194        O  0.20026489  0.41776327  0.48288960    -0.72500
O195        O  0.28692242  0.41664499  0.48176152    -0.72400
O196        O  0.22458267  0.46774908  0.39315877    -0.72400
O197        O  0.18845684  0.39729774  0.35277245    -0.72300
O198        O  0.25369487  0.34762571  0.43870445    -0.72400
O199        O  0.16500044  0.34738798  0.44243140    -0.72300
O200        O  0.27490678  0.39771065  0.34905960    -0.72500
V201        V  0.25527650  0.44077166  0.43685790     1.35200
V202        V  0.22122944  0.37386634  0.39659474     1.35200
C203        C  0.31353550  0.43860447  0.35719612     0.76900
C204        C  0.16191420  0.37671397  0.47441404     0.77000
C205        C  0.28522443  0.37614200  0.47163143     0.76900
C206        C  0.19243146  0.43906529  0.36083672     0.76800
O207        O  0.16730298  0.89772227  0.45292530    -0.72300
O208        O  0.27890564  0.96066057  0.36203437    -0.72500
O209        O  0.19170736  0.87363075  0.36243038    -0.72400
O210        O  0.25605156  0.98595190  0.45304936    -0.72400
O211        O  0.28759569  0.94772991  0.49472423    -0.72300
O212        O  0.22832288  0.83861526  0.40041468    -0.72400
O213        O  0.31586185  0.92777835  0.40373076    -0.72300
O214        O  0.20182511  0.86059691  0.49107001    -0.72500
V215        V  0.22424366  0.92882562  0.40824176     1.35200
V216        V  0.25776861  0.89448769  0.44678719     1.35200
C217        C  0.16374374  0.86414908  0.48335600     0.76900
C218        C  0.31779254  0.95880276  0.37051572     0.77000
C219        C  0.19555276  0.83550717  0.36914704     0.76900
C220        C  0.28586790  0.98688422  0.48720285     0.76800
O221        O  0.61741677  0.63360695  0.19993488    -0.72300
O222        O  0.49998783  0.56532932  0.28198336    -0.72500
O223        O  0.58829048  0.65259628  0.29021626    -0.72400
O224        O  0.53036431  0.54756683  0.19141465    -0.72400
O225        O  0.56106802  0.50774020  0.23148585    -0.72300
O226        O  0.62003998  0.61354213  0.32992905    -0.72400
O227        O  0.53288439  0.52764947  0.32226187    -0.72300
O228        O  0.65012899  0.59542279  0.23949201    -0.72500
V229        V  0.55963791  0.59895037  0.24160231     1.35200
V230        V  0.59036892  0.56183617  0.28011526     1.35200
C231        C  0.65510435  0.62972050  0.20919437     0.76900
C232        C  0.49516869  0.53129339  0.31251283     0.77000
C233        C  0.61856512  0.65288736  0.32312617     0.76900
C234        C  0.53179457  0.50811498  0.19751163     0.76800
C235        C  0.40574631  0.13156572  0.32518099    -0.20400
C236        C  0.44897414  0.17688572  0.31364918     0.35800
C237        C  0.44565811  0.21953535  0.30774390    -0.26400
C238        C  0.40115322  0.21877801  0.31594473     0.02300
C239        C  0.35811177  0.17411577  0.32733971     0.27100
C240        C  0.36066146  0.13081371  0.33081375    -0.25500
N241        N  0.49627159  0.18014285  0.30885496    -0.82900
H242        H  0.47846481  0.25418362  0.29861331     0.12900
C243        C  0.40118892  0.26579993  0.31573325     0.02200
N244        N  0.31234053  0.17316681  0.33670118    -0.81400
H245        H  0.32730235  0.09657287  0.33945970     0.17700
C246        C  0.37018679  0.27239764  0.28103314    -0.26300
C247        C  0.36902809  0.31658999  0.28067779     0.35700
C248        C  0.40092616  0.35504452  0.31435475    -0.20300
C249        C  0.43229557  0.34861828  0.34843442    -0.25600
C250        C  0.43211360  0.30398522  0.35027288     0.27100
H251        H  0.34677900  0.24290929  0.25444089     0.12900
N252        N  0.33687527  0.32303293  0.24533677    -0.82800
H253        H  0.45599110  0.37812680  0.37482645     0.17700
N254        N  0.46259231  0.29694284  0.38753635    -0.81400
H255        H  0.31836548  0.29232620  0.22086474     0.33400
H256        H  0.30979488  0.32461383  0.26801988     0.37900
H257        H  0.48310801  0.32876874  0.40995084     0.33300
H258        H  0.43928448  0.26937479  0.41383794     0.30000
H259        H  0.28408936  0.13725731  0.34437086     0.33300
H260        H  0.31645698  0.19355196  0.37085083     0.30000
H261        H  0.50667422  0.17542653  0.34656308     0.37900
H262        H  0.52309826  0.21530434  0.29652552     0.33400
C263        C  0.01914143  0.74016470  0.35160010    -0.20400
C264        C  0.97699797  0.70261383  0.32596493     0.35800
C265        C  0.93427587  0.70613113  0.32364505    -0.26400
C266        C  0.93170458  0.74442209  0.34888989     0.02300
C267        C  0.97175012  0.77923074  0.37872135     0.27100
C268        C  0.01582771  0.77791045  0.37795101    -0.25500
N269        N  0.97732222  0.66101405  0.30249925    -0.82900
H270        H  0.90233839  0.67838271  0.30272027     0.12900
C271        C  0.88492648  0.74440989  0.34717020     0.02200
N272        N  0.96658678  0.81358439  0.41209317    -0.81400
H273        H  0.04739464  0.80586208  0.39904283     0.17700
C274        C  0.84475646  0.70723108  0.37451404    -0.26300
C275        C  0.79860519  0.70389192  0.37254883     0.35700
C276        C  0.79358465  0.74023946  0.34488587    -0.20300
C277        C  0.83351914  0.77662321  0.31619857    -0.25600
C278        C  0.87892392  0.77800819  0.31551402     0.27100
H279        H  0.84942889  0.68033289  0.39685427     0.12900
N280        N  0.75702656  0.66370344  0.39820030    -0.82800
H281        H  0.82875482  0.80304157  0.29303755     0.17700
N282        N  0.91755733  0.81098608  0.28044647    -0.81400
H283        H  0.76722613  0.64025477  0.41659666     0.33400
H284        H  0.74528264  0.67839431  0.42795891     0.37900
H285        H  0.90593682  0.83125674  0.25789986     0.33300
H286        H  0.94720294  0.83646768  0.30280025     0.30000
H287        H  0.99900281  0.83515984  0.43313271     0.33300
H288        H  0.96130683  0.83780365  0.38851746     0.30000
H289        H  0.00243008  0.67426961  0.27144457     0.37900
H290        H  0.94311539  0.63672158  0.28601502     0.33400
C291        C  0.68606340  0.68865163  0.00397340    -0.20400
C292        C  0.68059584  0.64440086  0.02521139     0.35800
C293        C  0.63563942  0.60081551  0.01972585    -0.26400
C294        C  0.59642716  0.60025861  0.99290285     0.02300
C295        C  0.60108145  0.64298496  0.47160755     0.27100
C296        C  0.64554605  0.68704276  0.47794499    -0.25500
N297        N  0.72032426  0.64374294  0.05262398    -0.82900
H298        H  0.63086628  0.56705158  0.03702645     0.12900
C299        C  0.54943993  0.55363840  0.98980503     0.02200
N300        N  0.56034241  0.64260877  0.44518592    -0.81400
H301        H  0.64891120  0.72077171  0.46228533     0.17700
C302        C  0.50702446  0.55180244  0.01030106    -0.26300
C303        C  0.46211777  0.50766081  0.01116428     0.35700
C304        C  0.46004706  0.46435801  0.99175416    -0.20300
C305        C  0.50265183  0.46573845  0.46586896    -0.25600
C306        C  0.54728995  0.51031001  0.46459032     0.27100
H307        H  0.50927850  0.58479650  0.02679594     0.12900
N308        N  0.41913187  0.50653113  0.03297319    -0.82800
H309        H  0.50043718  0.43317030  0.44828902     0.17700
N310        N  0.58992885  0.51324728  0.43956301    -0.81400
H311        H  0.42704857  0.54168172  0.04489065     0.33400
H312        H  0.40934815  0.48489725  0.06700224     0.37900
H313        H  0.58168488  0.47902888  0.42407442     0.33300
H314        H  0.59925012  0.53736911  0.40760606     0.30000
H315        H  0.56985321  0.67800639  0.43238402     0.33300
H316        H  0.55265140  0.62086307  0.41144351     0.30000
H317        H  0.72748557  0.66554462  0.08611203     0.37900
H318        H  0.70999303  0.60825860  0.06585839     0.33400
C319        C  0.74977044  0.80635018  0.19016883    -0.20400
C320        C  0.78477171  0.84742227  0.16076155     0.35800
C321        C  0.78219469  0.89078870  0.16090889    -0.26400
C322        C  0.74732158  0.89505192  0.19179273     0.02300
C323        C  0.71274095  0.85425973  0.22156692     0.27100
C324        C  0.71379047  0.81012412  0.21952105    -0.25500
N325        N  0.82187423  0.84484492  0.12963565    -0.82900
H326        H  0.80770050  0.92160789  0.13676449     0.12900
C327        C  0.74679976  0.94207974  0.19117355     0.02200
N328        N  0.67665711  0.85773794  0.25364265    -0.81400
H329        H  0.68665848  0.77860464  0.24159801     0.17700
C330        C  0.70224017  0.94118550  0.18262679    -0.26300
C331        C  0.69975254  0.98455039  0.18242055     0.35700
C332        C  0.74385157  0.03054907  0.18603943    -0.20300
C333        C  0.78872846  0.03133376  0.19255927    -0.25600
C334        C  0.79034669  0.98765043  0.19790918     0.27100
H335        H  0.66894637  0.90630904  0.17631373     0.12900
N336        N  0.65252146  0.98152217  0.17884716    -0.82800
H337        H  0.82269050  0.06620428  0.19520253     0.17700
N338        N  0.83582155  0.98936882  0.21096286    -0.81400
H339        H  0.62407140  0.94487218  0.17828699     0.33400
H340        H  0.65117443  0.99677286  0.14286502     0.37900
H341        H  0.86427106  0.02579171  0.21484761     0.33300
H342        H  0.83121236  0.97288801  0.24797358     0.30000
H343        H  0.65392206  0.82440461  0.27290957     0.33300
H344        H  0.69540152  0.88401802  0.28278931     0.30000
H345        H  0.84784686  0.84523337  0.15567456     0.37900
H346        H  0.84105135  0.87646511  0.10642936     0.33400
C347        C  0.35974998  0.42403490  0.15245542    -0.20400
C348        C  0.35271984  0.46033510  0.17798644     0.35800
C349        C  0.30674576  0.45748796  0.17490941    -0.26400
C350        C  0.26842061  0.42008132  0.14618902     0.02300
C351        C  0.27516582  0.38431267  0.12012974     0.27100
C352        C  0.32077202  0.38646718  0.12379109    -0.25500
N353        N  0.39148130  0.49918551  0.20792862    -0.82900
H354        H  0.30071486  0.48473558  0.19470318     0.12900
C355        C  0.22126346  0.41909057  0.14386119     0.02200
N356        N  0.23591394  0.34645179  0.08966441    -0.81400
H357        H  0.32586457  0.35863056  0.10409833     0.17700
C358        C  0.21459425  0.44731171  0.10542307    -0.26300
C359        C  0.17085013  0.44921698  0.10364071     0.35700
C360        C  0.13303689  0.42082575  0.13986162    -0.20300
C361        C  0.13984572  0.39261041  0.17822665    -0.25600
C362        C  0.18415986  0.39213639  0.18120329     0.27100
H363        H  0.24395020  0.46849275  0.07753074     0.12900
N364        N  0.16438992  0.47903183  0.06493568    -0.82800
H365        H  0.11094507  0.37200215  0.20680823     0.17700
N366        N  0.19236854  0.36594387  0.22288365    -0.81400
H367        H  0.19505198  0.49596326  0.03997512     0.33400
H368        H  0.16271444  0.50741089  0.08476607     0.37900
H369        H  0.16176414  0.34924871  0.24795811     0.33300
H370        H  0.19599709  0.33750825  0.20594994     0.30000
H371        H  0.24711259  0.32317139  0.07269210     0.33300
H372        H  0.20706430  0.32460358  0.11536450     0.30000
H373        H  0.41746658  0.52377104  0.18105433     0.37900
H374        H  0.37836457  0.51934381  0.22839528     0.33400
C375        C  0.07067575  0.68771593  0.97796546    -0.20400
C376        C  0.11143844  0.68254345  0.50308130     0.35800
C377        C  0.11030591  0.63781741  0.49605650    -0.26400
C378        C  0.06900195  0.59798622  0.96133907     0.02300
C379        C  0.02918627  0.60360478  0.94421685     0.27100
C380        C  0.03008656  0.64825665  0.95357472    -0.25500
N381        N  0.15193593  0.72151192  0.53059733    -0.82900
H382        H  0.13977224  0.63329573  0.51232706     0.12900
C383        C  0.06707331  0.54981591  0.95953582     0.02200
N384        N  0.98792284  0.56386352  0.91794314    -0.81400
H385        H  0.99935126  0.65252004  0.94113585     0.17700
C386        C  0.02595173  0.50870378  0.98100601    -0.26300
C387        C  0.02363301  0.46300057  0.98439244     0.35700
C388        C  0.06479483  0.45883423  0.96814121    -0.20300
C389        C  0.10782786  0.50095532  0.45507768    -0.25600
C390        C  0.10908211  0.54614977  0.45002220     0.27100
H391        H  0.99567560  0.51250286  0.99628814     0.12900
N392        N  0.98017480  0.42162415  0.00592455    -0.82800
H393        H  0.13930046  0.49819744  0.44198412     0.17700
N394        N  0.15100054  0.58778413  0.42655536    -0.81400
H395        H  0.95557135  0.43234470  0.02018081     0.33400
H396        H  0.96212664  0.39736906  0.97483552     0.37900
H397        H  0.17690514  0.57816556  0.41393745     0.33300
H398        H  0.13893133  0.59788397  0.39291556     0.30000
H399        H  0.96212380  0.57424383  0.90743607     0.33300
H400        H  0.00077765  0.55670358  0.88285627     0.30000
H401        H  0.15412520  0.70828851  0.56774530     0.37900
H402        H  0.18423753  0.73033745  0.50993087     0.33400
C403        C  0.68438355  0.07407008  0.02065681    -0.20400
C404        C  0.67858733  0.11390240  0.00421910     0.35800
C405        C  0.63346829  0.11185875  0.01254143    -0.26400
C406        C  0.59449211  0.07131216  0.03775828     0.02300
C407        C  0.59862585  0.03005492  0.55369630     0.27100
C408        C  0.64334764  0.03146771  0.54425100    -0.25500
N409        N  0.71781114  0.15531665  0.97737157    -0.82900
H410        H  0.62826358  0.14154628  0.99820197     0.12900
C411        C  0.54662032  0.06940821  0.04200056     0.02200
N412        N  0.55784013  0.98709605  0.57674278    -0.81400
H413        H  0.64651339  0.99927802  0.55276100     0.17700
C414        C  0.50641372  0.03146260  0.51571146    -0.26300
C415        C  0.46156862  0.03070976  0.51155176     0.35700
C416        C  0.45628650  0.06867578  0.53552297    -0.20300
C417        C  0.49780532  0.10816723  0.06031161    -0.25600
C418        C  0.54281287  0.10892219  0.06330981     0.27100
H419        H  0.51118843  0.00353253  0.49567893     0.12900
N420        N  0.42236018  0.99267186  0.48126738    -0.82800
H421        H  0.49531074  0.13913596  0.07562352     0.17700
N422        N  0.58494483  0.15005961  0.08680501    -0.81400
H423        H  0.43231102  0.96753342  0.46685454     0.33400
H424        H  0.41713078  0.00954473  0.44836750     0.37900
H425        H  0.57579364  0.17580117  0.10114061     0.33300
H426        H  0.59545798  0.13697089  0.11928056     0.30000
H427        H  0.56720635  0.95988681  0.58389013     0.33300
H428        H  0.55053577  0.99732085  0.61343628     0.30000
H429        H  0.72381400  0.14211485  0.94195707     0.37900
H430        H  0.70733365  0.18119577  0.96744356     0.33400
C431        C  0.79484559  0.13103766  0.34697147    -0.20400
C432        C  0.84046052  0.13407317  0.33553677     0.35800
C433        C  0.88341644  0.17991158  0.33736187    -0.26400
C434        C  0.88217150  0.22213110  0.35319370     0.02300
C435        C  0.83699207  0.21887932  0.36663697     0.27100
C436        C  0.79361317  0.17367329  0.36150862    -0.25500
N437        N  0.84318027  0.09104883  0.32132629    -0.82900
H438        H  0.91811717  0.18280760  0.32591658     0.12900
C439        C  0.92835034  0.26976589  0.35302593     0.02200
N440        N  0.83544850  0.26135921  0.38570531    -0.81400
H441        H  0.75875922  0.17168496  0.36974735     0.17700
C442        C  0.93025732  0.30922330  0.32500759    -0.26300
C443        C  0.97400761  0.35432292  0.32113368     0.35700
C444        C  0.01704718  0.35958889  0.34511451    -0.20300
C445        C  0.01495721  0.31986938  0.37301275    -0.25600
C446        C  0.97090524  0.27521085  0.37788149     0.27100
H447        H  0.89768641  0.30437190  0.30486998     0.12900
N448        N  0.97497547  0.39401305  0.29168598    -0.82800
H449        H  0.04781408  0.32366329  0.39137856     0.17700
N450        N  0.96928373  0.23517120  0.40735280    -0.81400
H451        H  0.94009697  0.38392481  0.27690843     0.33400
H452        H  0.99780256  0.40044855  0.25906998     0.37900
H453        H  0.00365234  0.24543977  0.42370168     0.33300
H454        H  0.94472112  0.22711881  0.43872657     0.30000
H455        H  0.79924227  0.25256253  0.39391481     0.33300
H456        H  0.85435335  0.27156830  0.42152667     0.30000
H457        H  0.82471667  0.07826606  0.28563360     0.37900
H458        H  0.87957616  0.09986952  0.31452480     0.33400
C459        C  0.35228912  0.03502701  0.19872255    -0.20400
C460        C  0.30781520  0.03138600  0.18046915     0.35800
C461        C  0.26382155  0.98656753  0.18555676    -0.26400
C462        C  0.26320938  0.94560398  0.20818040     0.02300
C463        C  0.30704430  0.94891336  0.22655283     0.27100
C464        C  0.35117904  0.99353130  0.22139693    -0.25500
N465        N  0.30739938  0.07206896  0.15465787    -0.82900
H466        H  0.22993376  0.98302121  0.17026966     0.12900
C467        C  0.21752527  0.89789388  0.20599991     0.02200
N468        N  0.30660550  0.90647058  0.24891396    -0.81400
H469        H  0.38493364  0.99564162  0.23485106     0.17700
C470        C  0.21738175  0.86108270  0.17472093    -0.26300
C471        C  0.17432140  0.81616423  0.16757810     0.35700
C472        C  0.13092523  0.80740400  0.19375011    -0.20300
C473        C  0.13087690  0.84431353  0.22510095    -0.25600
C474        C  0.17397375  0.88999884  0.23109375     0.27100
H475        H  0.25071793  0.86825057  0.15418281     0.12900
N476        N  0.17392406  0.78025026  0.13199922    -0.82800
H477        H  0.09725022  0.83748073  0.24470954     0.17700
N478        N  0.17359571  0.92859730  0.26145532    -0.81400
H479        H  0.20889340  0.79256832  0.11584207     0.33400
H480        H  0.15089069  0.77694202  0.10064970     0.37900
H481        H  0.13879011  0.91644392  0.27798527     0.33300
H482        H  0.19806991  0.93705748  0.29276524     0.30000
H483        H  0.34186834  0.91523389  0.26117792     0.33300
H484        H  0.28435768  0.89607826  0.28260474     0.30000
H485        H  0.31191314  0.09757783  0.18378134     0.37900
H486        H  0.27305672  0.06094936  0.13769401     0.33400
C487        C  0.08393241  0.76191252  0.69266402     0.79700
N488        N  0.04052774  0.75977651  0.68412603    -0.78600
C489        C  0.99957370  0.71652744  0.67238317     0.82200
N490        N  0.00195009  0.67387526  0.67094284    -0.78500
C491        C  0.04619982  0.67623829  0.68058647     0.82200
N492        N  0.08646074  0.72029308  0.69055007    -0.80300
C493        C  0.39766731  0.08284855  0.71085145     0.79700
N494        N  0.43977087  0.08111215  0.71351128    -0.78600
C495        C  0.48413723  0.12123639  0.70315914     0.82200
N496        N  0.48646736  0.16457145  0.68778843    -0.78500
C497        C  0.44332759  0.16606997  0.68462133     0.82200
N498        N  0.40025692  0.12542080  0.69689114    -0.80300
C499        C  0.06704441  0.40554912  0.83406100     0.79700
N500        N  0.06941556  0.44873451  0.82397644    -0.78600
C501        C  0.11290906  0.49099578  0.81887962     0.82200
N502        N  0.15618686  0.49050414  0.82639775    -0.78500
C503        C  0.15355379  0.44618537  0.83761384     0.82200
N504        N  0.10913687  0.40466085  0.84045710    -0.80300
C505        C  0.75105233  0.08425225  0.83643439     0.79700
N506        N  0.75007853  0.04135940  0.84436354    -0.78600
C507        C  0.70725908  0.99797187  0.84586627     0.82200
N508        N  0.66338637  0.99740329  0.83828511    -0.78500
C509        C  0.66471699  0.04151110  0.82952636     0.82200
N510        N  0.70840499  0.08390807  0.82960937    -0.80300
O511        O  0.52361064  0.07376831  0.70229877    -0.72300
O512        O  0.59117380  0.02112676  0.78057272    -0.72500
O513        O  0.50253710  0.02016332  0.78910191    -0.72400
O514        O  0.61155642  0.07512489  0.69353469    -0.72400
O515        O  0.64866317  0.14265762  0.73897696    -0.72300
O516        O  0.53929166  0.08836172  0.83352453    -0.72400
O517        O  0.62566187  0.08876260  0.82610126    -0.72300
O518        O  0.56010637  0.14213681  0.74641070    -0.72500
V519        V  0.55802646  0.04895325  0.74205425     1.35200
V520        V  0.59267729  0.11409839  0.78537551     1.35200
C521        C  0.52681767  0.11457270  0.71443024     0.76900
C522        C  0.62289996  0.04813845  0.81420927     0.77000
C523        C  0.50079127  0.04751873  0.82469017     0.76900
C524        C  0.65044159  0.11556757  0.70311117     0.76800
O525        O  0.13973765  0.65518545  0.77691683    -0.72300
O526        O  0.09235229  0.54967384  0.67690178    -0.72500
O527        O  0.09390371  0.63738158  0.68502132    -0.72400
O528        O  0.13830401  0.56572882  0.76886562    -0.72400
O529        O  0.06703470  0.53068377  0.80789299    -0.72300
O530        O  0.02183893  0.59934877  0.72231107    -0.72400
O531        O  0.02118692  0.51135981  0.71596074    -0.72300
O532        O  0.06776747  0.61734547  0.81415499    -0.72500
V533        V  0.11470483  0.60121314  0.72752412     1.35200
V534        V  0.04600222  0.56547893  0.76441314     1.35200
C535        C  0.10955881  0.65588304  0.80975841     0.76900
C536        C  0.05055585  0.51108008  0.68188578     0.77000
C537        C  0.05214867  0.63358735  0.69282221     0.76900
C538        C  0.10805490  0.53297592  0.79997706     0.76800
C539        C  0.73136449  0.07496408  0.51935369     0.79700
N540        N  0.77409008  0.11723891  0.52481340    -0.78600
C541        C  0.81793646  0.11892957  0.52087770     0.82200
N542        N  0.81924725  0.07648695  0.50993270    -0.78500
C543        C  0.77623623  0.03389737  0.00211087     0.82200
N544        N  0.73302632  0.03365487  0.00675102    -0.80300
C545        C  0.41080709  0.07120515  0.03187877     0.79700
N546        N  0.41229207  0.11504294  0.53379638    -0.78600
C547        C  0.37139853  0.11880949  0.52715166     0.82200
N548        N  0.32738554  0.07704440  0.01552594    -0.78500
C549        C  0.32596220  0.03236239  0.01303104     0.82200
N550        N  0.36748088  0.03050256  0.02235385    -0.80300
C551        C  0.06850439  0.41349424  0.48373912     0.79700
N552        N  0.02755282  0.37107738  0.49535562    -0.78600
C553        C  0.02823606  0.32898326  0.50480609     0.82200
N554        N  0.07197334  0.32877980  0.50133182    -0.78500
C555        C  0.11307032  0.37231663  0.98279482     0.82200
N556        N  0.11010219  0.41338978  0.97316420    -0.80300
C557        C  0.07174391  0.73454575  0.49246612     0.79700
N558        N  0.02948073  0.73478822  0.50205924    -0.78600
C559        C  0.02943972  0.77764298  0.51047605     0.82200
N560        N  0.07300525  0.82171372  0.50736137    -0.78500
C561        C  0.11466872  0.82025172  0.99580185     0.82200
N562        N  0.11292255  0.77695303  0.98663731    -0.80300
C563        C  0.08508886  0.42217633  0.63755853     0.79700
N564        N  0.08526265  0.46447636  0.64720113    -0.78600
C565        C  0.04298974  0.46507308  0.65665718     0.82200
N566        N  0.99860957  0.42153249  0.65471485    -0.78500
C567        C  0.99861948  0.37832104  0.64426152     0.82200
N568        N  0.04203997  0.37946264  0.63721087    -0.80300
C569        C  0.40342252  0.42134340  0.66260977     0.79700
N570        N  0.40284600  0.37834489  0.65690098    -0.78600
C571        C  0.44431911  0.37530640  0.66104429     0.82200
N572        N  0.48831931  0.41698773  0.67243443    -0.78500
C573        C  0.48889203  0.46102022  0.67849078     0.82200
N574        N  0.44649931  0.46225652  0.67285289    -0.80300
O575        O  0.39586422  0.20275159  0.66315478    -0.72300
O576        O  0.34925434  0.26065655  0.56295832    -0.72500
O577        O  0.34866191  0.17231452  0.57195514    -0.72400
O578        O  0.39611566  0.28922812  0.65422863    -0.72400
O579        O  0.46749732  0.32224539  0.61557360    -0.72300
O580        O  0.41966998  0.20536460  0.53251256    -0.72400
O581        O  0.42055584  0.29287907  0.52423401    -0.72300
O582        O  0.46677295  0.23365516  0.62378114    -0.72500
V583        V  0.37394391  0.23186412  0.61237668     1.35200
V584        V  0.44217692  0.26288472  0.57462450     1.35200
C585        C  0.43718009  0.20483167  0.65818581     0.76900
C586        C  0.37907253  0.29043196  0.52931269     0.77000
C587        C  0.37799581  0.16766522  0.54129802     0.76900
C588        C  0.43790189  0.32679931  0.64596855     0.76800
C589        C  0.74689324  0.75861561  0.68638368     0.79700
N590        N  0.70436788  0.71599167  0.69328614    -0.78600
C591        C  0.70282754  0.67191539  0.69251658     0.82200
N592        N  0.74551482  0.67045245  0.68331266    -0.78500
C593        C  0.78883701  0.71421280  0.67579605     0.82200
N594        N  0.78850103  0.75715312  0.67837507    -0.80300
C595        C  0.74028592  0.07702009  0.67689205     0.79700
N596        N  0.69863186  0.07848389  0.68461904    -0.78600
C597        C  0.69765816  0.12112292  0.68400775     0.82200
N598        N  0.74053301  0.16478238  0.67439245    -0.78500
C599        C  0.78341060  0.16346209  0.66592674     0.82200
N600        N  0.78241836  0.11966552  0.66803938    -0.80300
O601        O  0.87349457  0.76184723  0.65727212    -0.72300
O602        O  0.98182620  0.80356856  0.56240037    -0.72500
O603        O  0.89363482  0.80406967  0.56286967    -0.72400
O604        O  0.96020568  0.76232624  0.65665718    -0.72400
O605        O  0.92582179  0.68955777  0.62132504    -0.72300
O606        O  0.85692311  0.73057929  0.52924051    -0.72400
O607        O  0.94410019  0.73076723  0.52717881    -0.72300
O608        O  0.83666458  0.68835578  0.62370035    -0.72500
V609        V  0.92651040  0.78146691  0.60915663     1.35200
V610        V  0.89154488  0.71125930  0.57591131     1.35200
C611        C  0.83526699  0.71968240  0.65404609     0.76900
C612        C  0.98294478  0.77216744  0.53190186     0.77000
C613        C  0.86045533  0.77263053  0.53339238     0.76900
C614        C  0.95817182  0.72115247  0.65153322     0.76800
O615        O  0.89185785  0.17204527  0.56895763    -0.72300
O616        O  0.95715602  0.29144978  0.64873143    -0.72500
O617        O  0.86980039  0.20388512  0.65616523    -0.72400
O618        O  0.97998982  0.26017719  0.56224685    -0.72400
O619        O  0.94294426  0.29132342  0.51759521    -0.72300
O620        O  0.83246763  0.23423851  0.61081509    -0.72400
O621        O  0.92085933  0.32327177  0.60402898    -0.72300
O622        O  0.85702999  0.20497570  0.52345456    -0.72500
V623        V  0.92389039  0.23250464  0.60836947     1.35200
V624        V  0.88900810  0.26279525  0.56491952     1.36100
C625        C  0.86012312  0.16728778  0.53520643     0.76900
C626        C  0.95454317  0.32921955  0.63558936     0.77000
C627        C  0.83067232  0.20498633  0.64632169     0.76900
C628        C  0.98164685  0.28927476  0.52678411     0.76800
C629        C  0.41474256  0.41563797  0.48996524     0.79700
N630        N  0.37067356  0.41509256  0.98565269    -0.78600
C631        C  0.32759842  0.37209247  0.98731347     0.82200
N632        N  0.32823088  0.32844685  0.49852403    -0.78500
C633        C  0.37273285  0.33012322  0.50543202     0.82200
N634        N  0.41517332  0.37368071  0.50020537    -0.80300
C635        C  0.73265699  0.73493406  0.50605733     0.79700
N636        N  0.73398072  0.77870671  0.00103920    -0.78600
C637        C  0.77679362  0.82217202  0.00115747     0.82200
N638        N  0.81979291  0.82229259  0.50728307    -0.78500
C639        C  0.81901827  0.77825813  0.51408983     0.82200
N640        N  0.77558479  0.73564473  0.51242633    -0.80300
C641        C  0.06945361  0.74192593  0.84967749     0.79700
N642        N  0.11174670  0.78460320  0.85679144    -0.78600
C643        C  0.15616805  0.78709803  0.85391971     0.82200
N644        N  0.15847311  0.74533374  0.84140939    -0.78500
C645        C  0.11503238  0.70177265  0.83356185     0.82200
N646        N  0.07176081  0.70111135  0.83903308    -0.80300
C647        C  0.74980613  0.74193019  0.84443440     0.79700
N648        N  0.75033464  0.78499960  0.84918961    -0.78600
C649        C  0.70796306  0.78665887  0.85133727     0.82200
N650        N  0.66358709  0.74386760  0.84635650    -0.78500
C651        C  0.66337910  0.70011638  0.84050214     0.82200
N652        N  0.70647950  0.69991929  0.84055344    -0.80300
O653        O  0.75525689  0.87262051  0.86105368    -0.72300
O654        O  0.80078333  0.98513807  0.95010193    -0.72500
O655        O  0.80177096  0.89691539  0.95218149    -0.72400
O656        O  0.75406661  0.95900203  0.85856885    -0.72400
O657        O  0.68325719  0.92538831  0.89849580    -0.72300
O658        O  0.73023017  0.86160711  0.99061383    -0.72400
O659        O  0.72997336  0.94829125  0.99003711    -0.72300
O660        O  0.68364789  0.83713802  0.89941510    -0.72500
V661        V  0.77654734  0.92777902  0.90614696     1.35200
V662        V  0.70823077  0.89386220  0.94395206     1.35200
C663        C  0.71386404  0.83430567  0.86852295     0.76900
C664        C  0.77099793  0.98704136  0.98249337     0.77000
C665        C  0.77169541  0.86449489  0.98366477     0.76900
C666        C  0.71278002  0.95652767  0.86563503     0.76800
C667        C  0.41193299  0.08642359  0.85267055     0.79700
N668        N  0.45347646  0.08467846  0.84576734    -0.78600
C669        C  0.45393466  0.04181207  0.84455913     0.82200
N670        N  0.41070354  0.99816156  0.85188967    -0.78500
C671        C  0.36814987  0.99988265  0.86060483     0.82200
N672        N  0.36948406  0.04384565  0.85994473    -0.80300
C673        C  0.40571464  0.40224180  0.82490659     0.79700
N674        N  0.36328342  0.40251152  0.83124471    -0.78600
C675        C  0.36271596  0.44516973  0.83745553     0.82200
N676        N  0.40621355  0.48930662  0.83581769    -0.78500
C677        C  0.44945231  0.48875258  0.82863973     0.82200
N678        N  0.44842009  0.44516852  0.82457051    -0.80300
O679        O  0.31321373  0.46696858  0.89093406    -0.72300
O680        O  0.19941383  0.41823854  0.97874582    -0.72500
O681        O  0.28603008  0.41700328  0.98062749    -0.72400
O682        O  0.22580498  0.46811980  0.88896705    -0.72400
O683        O  0.19062877  0.39768333  0.84853292    -0.72300
O684        O  0.25372292  0.34793859  0.93770739    -0.72400
O685        O  0.16500962  0.34783540  0.93834905    -0.72300
O686        O  0.27710191  0.39783587  0.84802737    -0.72500
V687        V  0.25542064  0.44111816  0.93421934     1.35200
V688        V  0.22227452  0.37418071  0.89399710     1.35200
C689        C  0.31553892  0.43865913  0.85699369     0.76900
C690        C  0.16127629  0.37715730  0.96979909     0.77000
C691        C  0.28467660  0.37657599  0.97100896     0.76900
C692        C  0.19441007  0.43945336  0.85602494     0.76800
O693        O  0.16752504  0.89707422  0.95329280    -0.72300
O694        O  0.28197647  0.96009403  0.86651410    -0.72500
O695        O  0.19466745  0.87322005  0.86434926    -0.72400
O696        O  0.25632985  0.98504138  0.95577856    -0.72400
O697        O  0.28683279  0.94680503  0.99930123    -0.72300
O698        O  0.22910371  0.83737676  0.90502637    -0.72400
O699        O  0.31694025  0.92617106  0.91006838    -0.72300
O700        O  0.20072894  0.85998916  0.99418424    -0.72500
V701        V  0.22581360  0.92813285  0.91066993     1.35200
V702        V  0.25778101  0.89337249  0.95139696     1.35200
C703        C  0.16298172  0.86358106  0.98445613     0.76900
C704        C  0.32037032  0.95794009  0.87700350     0.77000
C705        C  0.19774720  0.83481307  0.87201941     0.76900
C706        C  0.28548796  0.98604440  0.99079279     0.76800
O707        O  0.61643179  0.63287466  0.69945149    -0.72300
O708        O  0.50135960  0.56548812  0.78510833    -0.72500
O709        O  0.58985491  0.65295859  0.79067154    -0.72400
O710        O  0.52900946  0.54648282  0.69372027    -0.72400
O711        O  0.56085589  0.50722538  0.73272532    -0.72300
O712        O  0.62277325  0.61443838  0.82918497    -0.72400
O713        O  0.53558350  0.52857414  0.82433781    -0.72300
O714        O  0.65033239  0.59528059  0.73782110    -0.72500
V715        V  0.55983000  0.59865186  0.74291009     1.35200
V716        V  0.59171862  0.56210927  0.78031607     1.35200
C717        C  0.65448796  0.62937728  0.70770248     0.76900
C718        C  0.49750904  0.53185442  0.81563811     0.77000
C719        C  0.62098520  0.65364468  0.82265490     0.76900
C720        C  0.53036884  0.50699958  0.69996889     0.76800
C721        C  0.41235195  0.13383037  0.84908754    -0.20400
C722        C  0.45416955  0.17763564  0.83086223     0.35800
C723        C  0.45083330  0.22017806  0.82425493    -0.26400
C724        C  0.40792936  0.22083706  0.83773190     0.02300
C725        C  0.36682301  0.17816320  0.85738049     0.27100
C726        C  0.36916523  0.13482674  0.86213644    -0.25500
N727        N  0.49988851  0.17926790  0.81900697    -0.82900
H728        H  0.48230978  0.25354883  0.80953283     0.12900
C729        C  0.40777821  0.26751379  0.83352769     0.02200
N730        N  0.32323349  0.17929737  0.87302461    -0.81400
H731        H  0.33719511  0.10189171  0.87675086     0.17700
C732        C  0.37466388  0.27097707  0.79921357    -0.26300
C733        C  0.37319834  0.31488712  0.79514621     0.35700
C734        C  0.40617442  0.35579946  0.82550559    -0.20300
C735        C  0.44006748  0.35249816  0.85862734    -0.25600
C736        C  0.44089616  0.30853801  0.86345014     0.27100
H737        H  0.34993658  0.23930408  0.77578766     0.12900
N738        N  0.33977479  0.31853637  0.75917752    -0.82800
H739        H  0.46524927  0.38408498  0.88174129     0.17700
N740        N  0.47489705  0.30515629  0.89881199    -0.81400
H741        H  0.32110911  0.28635418  0.73684566     0.33400
H742        H  0.31292332  0.32084708  0.78150426     0.37900
H743        H  0.49645391  0.33865675  0.91815403     0.33300
H744        H  0.45431805  0.27929654  0.92786942     0.30000
H745        H  0.29619191  0.14467326  0.88648038     0.33300
H746        H  0.33251934  0.20329857  0.90506098     0.30000
H747        H  0.51514504  0.17710785  0.85481616     0.37900
H748        H  0.52520857  0.21311187  0.80227961     0.33400
C749        C  0.02156457  0.74061878  0.85114001    -0.20400
C750        C  0.97884016  0.70231766  0.82702572     0.35800
C751        C  0.93612258  0.70585806  0.82490440    -0.26400
C752        C  0.93406036  0.74486331  0.84903800     0.02300
C753        C  0.97461640  0.78036492  0.87769915     0.27100
C754        C  0.01868341  0.77902238  0.87658358    -0.25500
N755        N  0.97845094  0.65982216  0.80508790    -0.82900
H756        H  0.90379071  0.67757909  0.80498537     0.12900
C757        C  0.88738494  0.74507551  0.84723094     0.02200
N758        N  0.97000889  0.81547195  0.91034350    -0.81400
H759        H  0.05055948  0.80747167  0.89682741     0.17700
C760        C  0.84734414  0.70863429  0.87544176    -0.26300
C761        C  0.80121024  0.70532907  0.87313112     0.35700
C762        C  0.79609926  0.74098752  0.84417247    -0.20300
C763        C  0.83588751  0.77664082  0.81472190    -0.25600
C764        C  0.88125779  0.77794766  0.81445072     0.27100
H765        H  0.85208126  0.68223551  0.89867052     0.12900
N766        N  0.75971117  0.66583683  0.89968272    -0.82800
H767        H  0.83101942  0.80251208  0.79067314     0.17700
N768        N  0.91971918  0.81005169  0.77871332    -0.81400
H769        H  0.76998998  0.64291279  0.91914460     0.33400
H770        H  0.74798503  0.68127909  0.92864904     0.37900
H771        H  0.90801679  0.82981509  0.75541804     0.33300
H772        H  0.94949374  0.83603775  0.80054107     0.30000
H773        H  0.00272930  0.83744212  0.93073702     0.33300
H774        H  0.96440813  0.83919862  0.88628032     0.30000
H775        H  0.00233191  0.67179383  0.77294678     0.37900
H776        H  0.94369366  0.63480338  0.79031667     0.33400
C777        C  0.68586079  0.68778402  0.50296418    -0.20400
C778        C  0.68116337  0.64335222  0.52276140     0.35800
C779        C  0.63648857  0.59950285  0.51682551    -0.26400
C780        C  0.59671978  0.59899101  0.49137357     0.02300
C781        C  0.60166880  0.64408698  0.97144715     0.27100
C782        C  0.64634880  0.68797039  0.97762873    -0.25500
N783        N  0.72140527  0.64273877  0.54906692    -0.82900
H784        H  0.63233152  0.56551480  0.53277744     0.12900
C785        C  0.54991226  0.55228435  0.48822226     0.02200
N786        N  0.56164822  0.64373604  0.94344837    -0.81400
H787        H  0.65038247  0.72159275  0.96082302     0.17700
C788        C  0.50809251  0.54951226  0.51159359    -0.26300
C789        C  0.46330426  0.50530921  0.51212389     0.35700
C790        C  0.46070491  0.46300635  0.48909237    -0.20300
C791        C  0.50266219  0.46623005  0.97156146    -0.25600
C792        C  0.54726789  0.51072291  0.96946601     0.27100
H793        H  0.51076394  0.58180233  0.53049618     0.12900
N794        N  0.42094673  0.50298258  0.53720103    -0.82800
H795        H  0.50106896  0.43300532  0.95690063     0.17700
N796        N  0.59034615  0.51262699  0.94685396    -0.81400
H797        H  0.42922853  0.53745136  0.55190262     0.33400
H798        H  0.41205112  0.47961943  0.56974297     0.37900
H799        H  0.58241743  0.47777956  0.93370915     0.33300
H800        H  0.60020001  0.53527183  0.91354921     0.30000
H801        H  0.57179409  0.67898280  0.92954055     0.33300
H802        H  0.55424215  0.62128199  0.91034635     0.30000
H803        H  0.72849358  0.66367499  0.58324958     0.37900
H804        H  0.71165538  0.60708727  0.56113157     0.33400
C805        C  0.74757201  0.80606382  0.68646015    -0.20400
C806        C  0.78166013  0.84665320  0.65582955     0.35800
C807        C  0.77843881  0.88965440  0.65509010    -0.26400
C808        C  0.74445023  0.89447932  0.68695983     0.02300
C809        C  0.71126138  0.85441683  0.71859327     0.27100
C810        C  0.71238994  0.81027657  0.71685010    -0.25500
N811        N  0.81869820  0.84404756  0.62463468    -0.82900
H812        H  0.80293689  0.91984710  0.62964571     0.12900
C813        C  0.74361650  0.94139688  0.68565144     0.02200
N814        N  0.67670012  0.85871600  0.75246381    -0.81400
H815        H  0.68619526  0.77922479  0.74019849     0.17700
C816        C  0.69859922  0.94011037  0.67935647    -0.26300
C817        C  0.69592363  0.98340815  0.67859872     0.35700
C818        C  0.74007272  0.02959423  0.67915220    -0.20300
C819        C  0.78528175  0.03065221  0.68338241    -0.25600
C820        C  0.78733801  0.98727023  0.68944544     0.27100
H821        H  0.66508613  0.90498943  0.67537610     0.12900
N822        N  0.64845962  0.98008968  0.67809653    -0.82800
H823        H  0.81930486  0.06559176  0.68391635     0.17700
N824        N  0.83349734  0.98966112  0.70043217    -0.81400
H825        H  0.62015404  0.94342220  0.68012066     0.33400
H826        H  0.64464327  0.99359233  0.64198713     0.37900
H827        H  0.86200997  0.02623333  0.70225770     0.33300
H828        H  0.83073500  0.97461438  0.73793821     0.30000
H829        H  0.65484906  0.82584556  0.77291045     0.33300
H830        H  0.69683128  0.88559254  0.78062113     0.30000
H831        H  0.84499090  0.84498931  0.65058181     0.37900
H832        H  0.83755948  0.87548794  0.60110085     0.33400
C833        C  0.35720014  0.42289392  0.65751340    -0.20400
C834        C  0.34996504  0.45908225  0.68296233     0.35800
C835        C  0.30421388  0.45667550  0.67882812    -0.26400
C836        C  0.26638878  0.41993394  0.64892217     0.02300
C837        C  0.27353505  0.38452343  0.62256626     0.27100
C838        C  0.31883604  0.38614315  0.62743031    -0.25500
N839        N  0.38833421  0.49745103  0.71373992    -0.82900
H840        H  0.29801123  0.48380431  0.69863609     0.12900
C841        C  0.21948069  0.41946752  0.64525231     0.02200
N842        N  0.23512837  0.34774621  0.59031919    -0.81400
H843        H  0.32427247  0.35869030  0.60731299     0.17700
C844        C  0.21460803  0.44957932  0.60776769    -0.26300
C845        C  0.17101928  0.45170943  0.60454229     0.35700
C846        C  0.13137990  0.42143076  0.63808205    -0.20300
C847        C  0.13648899  0.39143632  0.67560195    -0.25600
C848        C  0.18068401  0.39089676  0.68027529     0.27100
H849        H  0.24523145  0.47204029  0.58174730     0.12900
N850        N  0.16663732  0.48369813  0.56701698    -0.82800
H851        H  0.10636248  0.36957623  0.70245096     0.17700
N852        N  0.18705235  0.36310432  0.72156681    -0.81400
H853        H  0.19832141  0.50147542  0.54360362     0.33400
H854        H  0.16456518  0.51132619  0.58799245     0.37900
H855        H  0.15538431  0.34547906  0.74503242     0.33300
H856        H  0.19147441  0.33533580  0.70414001     0.30000
H857        H  0.24659396  0.32471578  0.57325826     0.33300
H858        H  0.20535280  0.32536093  0.61473413     0.30000
H859        H  0.41498292  0.52211668  0.68745007     0.37900
H860        H  0.37509646  0.51769196  0.73382407     0.33400
C861        C  0.07199613  0.68810302  0.48481837    -0.20400
C862        C  0.11130942  0.68255479  0.99262465     0.35800
C863        C  0.10970052  0.63769935  0.98497985    -0.26400
C864        C  0.07087726  0.59853030  0.47033637     0.02300
C865        C  0.03198298  0.60428529  0.45048456     0.27100
C866        C  0.03267298  0.64898421  0.45850840    -0.25500
N867        N  0.15371508  0.72207266  0.01712417    -0.82900
H868        H  0.13995060  0.63349722  0.99933926     0.12900
C869        C  0.06909465  0.55053512  0.46887394     0.02200
N870        N  0.99184191  0.56458870  0.42284242    -0.81400
H871        H  0.00278568  0.65353897  0.44363609     0.17700
C872        C  0.02806825  0.50952776  0.49052687    -0.26300
C873        C  0.02572517  0.46381491  0.49371538     0.35700
C874        C  0.06669369  0.45957042  0.47682495    -0.20300
C875        C  0.10600724  0.50023658  0.94657491    -0.25600
C876        C  0.10722540  0.54539008  0.94113669     0.27100
H877        H  0.99782539  0.51341194  0.50578972     0.12900
N878        N  0.98239106  0.42246911  0.51548037    -0.82800
H879        H  0.13771006  0.49759951  0.93414328     0.17700
N880        N  0.14947606  0.58702425  0.91810941    -0.81400
H881        H  0.95812888  0.43332524  0.53048427     0.33400
H882        H  0.96385411  0.39844690  0.48437618     0.37900
H883        H  0.17531858  0.57730403  0.90554620     0.33300
H884        H  0.13783410  0.59768135  0.88457058     0.30000
H885        H  0.96668446  0.57510502  0.41018064     0.33300
H886        H  0.00615688  0.55725273  0.38897085     0.30000
H887        H  0.15866250  0.70961586  0.05357249     0.37900
H888        H  0.18440858  0.73048565  0.99360802     0.33400
C889        C  0.68429752  0.07426335  0.52502313    -0.20400
C890        C  0.67981133  0.11576304  0.51226762     0.35800
C891        C  0.63450453  0.11353479  0.51955494    -0.26400
C892        C  0.59406470  0.07127252  0.54032444     0.02300
C893        C  0.60024817  0.03145757  0.05414384     0.27100
C894        C  0.64474150  0.03264357  0.04382792    -0.25500
N895        N  0.72061401  0.15931277  0.49025952    -0.82900
H896        H  0.63032729  0.14450184  0.50770048     0.12900
C897        C  0.54610609  0.06927717  0.54274278     0.02200
N898        N  0.56095144  0.99013517  0.08115515    -0.81400
H899        H  0.64884442  0.00146554  0.05470864     0.17700
C900        C  0.50523155  0.02921699  0.01999826    -0.26300
C901        C  0.46007157  0.02800486  0.01744255     0.35700
C902        C  0.45638531  0.06842730  0.03715273    -0.20300
C903        C  0.49589446  0.10598776  0.56353906    -0.25600
C904        C  0.54085737  0.10677921  0.56728372     0.27100
H905        H  0.50871918  0.99947576  0.00259969     0.12900
N906        N  0.41880975  0.98668313  0.99308455    -0.82800
H907        H  0.49204759  0.13510417  0.58196495     0.17700
N908        N  0.58159228  0.14613373  0.59461089    -0.81400
H909        H  0.42764204  0.95979189  0.98213639     0.33400
H910        H  0.41140872  0.99938436  0.95820501     0.37900
H911        H  0.57152415  0.17059576  0.61074908     0.33300
H912        H  0.59071374  0.13075216  0.62606982     0.30000
H913        H  0.57109214  0.96381511  0.09020389     0.33300
H914        H  0.55516898  0.00290171  0.11704407     0.30000
H915        H  0.72859067  0.14953107  0.45374819     0.37900
H916        H  0.71098075  0.18629262  0.48293669     0.33400
C917        C  0.79759535  0.13133015  0.83845402    -0.20400
C918        C  0.84319228  0.13470293  0.82627538     0.35800
C919        C  0.88613575  0.18053357  0.82906931    -0.26400
C920        C  0.88468295  0.22237390  0.84602984     0.02300
C921        C  0.83945156  0.21883386  0.85968427     0.27100
C922        C  0.79620427  0.17367916  0.85395408    -0.25500
N923        N  0.84584164  0.09202454  0.81037092    -0.82900
H924        H  0.92095833  0.18376634  0.81750833     0.12900
C925        C  0.93065272  0.27007286  0.84647439     0.02200
N926        N  0.83774303  0.26096972  0.87964244    -0.81400
H927        H  0.76135186  0.17151114  0.86261608     0.17700
C928        C  0.93251492  0.30955974  0.81862387    -0.26300
C929        C  0.97618105  0.35470162  0.81503664     0.35700
C930        C  0.01927909  0.35984238  0.83875016    -0.20300
C931        C  0.01712546  0.32018449  0.86686244    -0.25600
C932        C  0.97301958  0.27557599  0.87175955     0.27100
H933        H  0.89995740  0.30471992  0.79845898     0.12900
N934        N  0.97697563  0.39460780  0.78623606    -0.82800
H935        H  0.04992438  0.32400367  0.88540498     0.17700
N936        N  0.97109289  0.23567194  0.90176992    -0.81400
H937        H  0.94212277  0.38450782  0.77137648     0.33400
H938        H  0.00000307  0.40157414  0.75371815     0.37900
H939        H  0.00540114  0.24593176  0.91827070     0.33300
H940        H  0.94659118  0.22816324  0.93310500     0.30000
H941        H  0.80149211  0.25198804  0.88790326     0.33300
H942        H  0.85653329  0.27067387  0.91554550     0.30000
H943        H  0.82720477  0.08005810  0.77464527     0.37900
H944        H  0.88221870  0.10105400  0.80301980     0.33400
C945        C  0.34927887  0.03770835  0.71883938    -0.20400
C946        C  0.30410735  0.03577247  0.70668897     0.35800
C947        C  0.26023896  0.99053442  0.70906660    -0.26400
C948        C  0.26006086  0.94758466  0.72442748     0.02300
C949        C  0.30439907  0.94963648  0.73893354     0.27100
C950        C  0.34851979  0.99450218  0.73541873    -0.25500
N951        N  0.30266618  0.07893157  0.68997520    -0.82900
H952        H  0.22609186  0.98842785  0.69700524     0.12900
C953        C  0.21432887  0.89991258  0.71879505     0.02200
N954        N  0.30452938  0.90575271  0.75553166    -0.81400
H955        H  0.38260391  0.99531534  0.74480404     0.17700
C956        C  0.21550536  0.86464600  0.68586173    -0.26300
C957        C  0.17308193  0.81973526  0.67630973     0.35700
C958        C  0.12871997  0.80932880  0.70134689    -0.20300
C959        C  0.12705341  0.84480041  0.73373940    -0.25600
C960        C  0.16954632  0.89051039  0.74231005     0.27100
H961        H  0.24947578  0.87299147  0.66597123     0.12900
N962        N  0.17437138  0.78552358  0.63946343    -0.82800
H963        H  0.09260336  0.83680688  0.75223088     0.17700
N964        N  0.16718569  0.92763024  0.77355800    -0.81400
H965        H  0.20992190  0.79880439  0.62452336     0.33400
H966        H  0.15233837  0.78326293  0.60751332     0.37900
H967        H  0.13175210  0.91430573  0.78888020     0.33300
H968        H  0.19078782  0.93587184  0.80563942     0.30000
H969        H  0.34009776  0.91367448  0.76544614     0.33300
H970        H  0.28324589  0.89286414  0.78981554     0.30000
H971        H  0.31130565  0.10203141  0.72270742     0.37900
H972        H  0.26707077  0.07003547  0.67880991     0.33400
loop_ 
_geom_bond_atom_site_label_1 
_geom_bond_atom_site_label_2 
_geom_bond_distance 
_geom_bond_site_symmetry_2 
_ccdc_geom_bond_type 
C1            N2   1.346       .  A
C1            N6   1.344       .  A
C1          C472   1.465       .  S
N2            C3   1.357       .  A
C3            N4   1.374       .  A
C3          C128   1.474   1_455  S
N4            C5   1.374       .  A
C5            N6   1.351       .  A
C5           C51   1.470       .  S
C7            N8   1.347       .  A
C7           N12   1.341       .  A
C7          C459   1.479       .  S
N8            C9   1.355       .  A
C9           N10   1.378       .  A
C9           C35   1.479       .  S
N10          C11   1.377       .  A
C11          N12   1.351       .  A
C11          C99   1.478       .  S
C13          N14   1.342       .  A
C13          N18   1.343       .  A
C13         C444   1.473       .  S
N14          C15   1.353       .  A
C15          N16   1.377       .  A
C15          C52   1.476       .  S
N16          C17   1.377       .  A
C17          N18   1.353       .  A
C17         C206   1.474       .  S
C19          N20   1.342       .  A
C19          N24   1.343       .  A
C19         C431   1.471       .  S
N20          C21   1.352   1_545  A
C21          N22   1.379       .  A
C21         C180   1.479       .  S
N22          C23   1.379   1_565  A
C23          N24   1.353       .  A
C23          C36   1.479       .  S
O25          V33   1.901       .  S
O25          C35   1.268       .  A
O26          V33   1.923       .  S
O26          C36   1.265       .  A
O27          V33   1.920       .  S
O27          C37   1.264       .  A
O28          V33   1.900       .  S
O28          C38   1.269       .  A
O29          V34   1.921       .  S
O29          C38   1.264       .  A
O30          V34   1.896       .  S
O30          C37   1.268       .  A
O31          V34   1.896       .  S
O31          C36   1.268       .  A
O32          V34   1.920       .  S
O32          C35   1.265       .  A
V33          V34   2.086       .  T
C37         C183   1.475       .  S
C38         C111   1.479       .  S
O39          V47   1.929       .  S
O39          C49   1.266       .  A
O40          V47   1.902       .  S
O40          C50   1.270       .  A
O41          V47   1.898       .  S
O41          C51   1.268       .  A
O42          V47   1.923       .  S
O42          C52   1.265       .  A
O43          V48   1.886       .  S
O43          C52   1.266       .  A
O44          V48   1.908       .  S
O44          C51   1.262       .  A
O45          V48   1.920       .  S
O45          C50   1.264       .  A
O46          V48   1.897       .  S
O46          C49   1.269       .  A
V47          V48   2.086       .  T
C49         C159   1.488       .  S
C50          C79   1.483       .  S
C53          N54   1.343       .  A
C53         N544   1.344       .  A
C53         C403   1.468       .  S
N54          C55   1.353       .  A
C55          N56   1.378       .  A
C55         C139   1.478       .  S
N56         C543   1.379       .  A
C57          N58   1.355       .  A
C57         N542   1.379       .  A
C57         C178   1.480   1_545  S
N58         C539   1.345       .  A
C59          N64   1.343       .  A
C59         N546   1.346       .  A
C59         C416   1.476       .  S
N60          C61   1.355       .  A
N60         C545   1.347       .  A
C61         N548   1.380       .  A
C61         C101   1.482       .  S
N62          C63   1.379       .  A
N62         C547   1.381       .  A
C63          N64   1.352       .  A
C63         C220   1.485   1_545  S
C65          N66   1.342       .  A
C65         N556   1.348       .  A
C65         C388   1.483       .  S
N66          C67   1.351       .  A
C67          N68   1.376       .  A
C67         C142   1.476   1_456  S
N68         C555   1.376       .  A
C69          N70   1.357       .  A
C69         N554   1.377       .  A
C69         C204   1.476       .  S
N70         C551   1.347       .  A
C71          N72   1.350       .  A
C71         N562   1.342       .  A
C71         C375   1.473       .  S
N72          C73   1.360   1_556  A
C73          N74   1.377       .  A
C73         C126   1.479   1_455  S
N74         C561   1.373   1_554  A
C75          N76   1.351       .  A
C75         N560   1.375       .  A
C75         C217   1.475       .  S
N76         C557   1.343       .  A
C77          N78   1.344       .  A
C77          N82   1.345       .  A
C77         C360   1.459       .  S
N78          C79   1.354       .  A
C79          N80   1.381   1_455  A
N80          C81   1.379   1_655  A
C81          N82   1.353       .  A
C81         C140   1.483   1_455  S
C83          N84   1.344       .  A
C83          N88   1.344       .  A
C83         C347   1.478       .  S
N84          C85   1.353       .  A
C85          N86   1.377       .  A
C85         C102   1.477       .  S
N86          C87   1.378       .  A
C87          N88   1.355       .  A
C87         C234   1.480       .  S
O89          V97   1.895       .  S
O89          C99   1.268       .  A
O90          V97   1.920       .  S
O90         C100   1.264       .  A
O91          V97   1.920       .  S
O91         C101   1.264       .  A
O92          V97   1.895       .  S
O92         C102   1.267       .  A
O93          V98   1.923       .  S
O93         C102   1.265       .  A
O94          V98   1.905       .  S
O94         C101   1.269       .  A
O95          V98   1.901       .  S
O95         C100   1.269       .  A
O96          V98   1.920       .  S
O96          C99   1.264       .  A
V97          V98   2.086       .  T
C100        C147   1.482       .  S
C103        N104   1.347       .  A
C103        N108   1.341       .  A
C103        C319   1.475       .  S
N104        C105   1.356       .  A
C105        N106   1.379       .  A
C105        C231   1.483       .  S
N106        C107   1.379       .  A
C107        N108   1.351       .  A
C107        C125   1.481       .  S
C109        N110   1.341       .  A
C109        N114   1.348       .  A
C109        C332   1.481       .  S
N110        C111   1.350       .  A
C111        N112   1.378       .  A
N112        C113   1.380       .  A
C113        N114   1.357       .  A
C113        C141   1.484       .  S
O115        V123   1.896       .  S
O115        C125   1.269       .  A
O116        V123   1.917       .  S
O116        C126   1.265       .  A
O117        V123   1.917       .  S
O117        C127   1.263       .  A
O118        V123   1.888       .  S
O118        C128   1.265       .  A
O119        V124   1.918       .  S
O119        C128   1.265       .  A
O120        V124   1.899       .  S
O120        C127   1.270       .  A
O121        V124   1.897       .  S
O121        C126   1.267       .  A
O122        V124   1.923       .  S
O122        C125   1.264       .  A
V123        V124   2.086       .  T
C127        C153   1.479       .  S
O129        V137   1.924       .  S
O129        C139   1.266       .  A
O130        V137   1.904       .  S
O130        C140   1.270       .  A
O131        V137   1.900       .  S
O131        C141   1.269       .  A
O132        V137   1.918       .  S
O132        C142   1.263       .  A
O133        V138   1.892       .  S
O133        C142   1.268       .  A
O134        V138   1.923       .  S
O134        C141   1.265       .  A
O135        V138   1.921       .  S
O135        C140   1.264       .  A
O136        V138   1.894       .  S
O136        C139   1.267       .  A
V137        V138   2.086       .  T
C143        N148   1.346   1_556  A
C143        N630   1.343       .  A
C143        C304   1.468       .  S
N144        C145   1.351       .  A
N144        C629   1.342       .  A
C145        N632   1.378       .  A
C145        C205   1.480       .  S
N146        C147   1.380   1_556  A
N146        C631   1.378       .  A
C147        N148   1.356       .  A
C149        N154   1.344       .  A
C149        N636   1.345       .  A
C149        C291   1.476       .  S
N150        C151   1.354       .  A
N150        C635   1.345       .  A
C151        N638   1.378       .  A
C151        C179   1.479       .  S
N152        C153   1.378       .  A
N152        C637   1.378       .  A
C153        N154   1.351       .  A
C155        N156   1.346       .  A
C155        N160   1.343       .  A
C155        C263   1.478       .  S
N156        C157   1.356       .  A
C157        N158   1.382       .  A
C157        C219   1.485       .  S
N158        C159   1.380       .  A
C159        N160   1.352       .  A
C161        N162   1.346       .  A
C161        N166   1.344       .  A
C161        C276   1.466       .  S
N162        C163   1.355       .  A
C163        N164   1.375       .  A
C163        C177   1.474       .  S
N164        C165   1.374       .  A
C165        N166   1.353       .  A
C165        C233   1.471       .  S
O167        V175   1.895       .  S
O167        C177   1.267       .  A
O168        V175   1.922       .  S
O168        C178   1.265       .  A
O169        V175   1.920       .  S
O169        C179   1.264       .  A
O170        V175   1.898       .  S
O170        C180   1.269       .  A
O171        V176   1.921       .  S
O171        C180   1.264       .  A
O172        V176   1.896       .  S
O172        C179   1.268       .  A
O173        V176   1.895       .  S
O173        C178   1.268       .  A
O174        V176   1.915       .  S
O174        C177   1.264       .  A
V175        V176   2.086       .  T
C181        N182   1.341       .  A
C181        N186   1.347       .  A
C181        C235   1.483       .  S
N182        C183   1.350       .  A
C183        N184   1.376   1_545  A
N184        C185   1.378       .  A
C185        N186   1.356   1_565  A
C185        C218   1.478       .  S
C187        N188   1.342       .  A
C187        N192   1.344       .  A
C187        C248   1.459       .  S
N188        C189   1.353       .  A
C189        N190   1.377       .  A
C189        C203   1.473       .  S
N190        C191   1.376       .  A
C191        N192   1.353       .  A
C191        C232   1.475       .  S
O193        V201   1.917       .  S
O193        C203   1.264       .  A
O194        V201   1.898       .  S
O194        C204   1.267       .  A
O195        V201   1.899       .  S
O195        C205   1.269       .  A
O196        V201   1.919       .  S
O196        C206   1.264       .  A
O197        V202   1.894       .  S
O197        C206   1.267       .  A
O198        V202   1.921       .  S
O198        C205   1.264       .  A
O199        V202   1.917       .  S
O199        C204   1.264       .  A
O200        V202   1.891       .  S
O200        C203   1.267       .  A
V201        V202   2.086       .  T
O207        V215   1.916       .  S
O207        C217   1.264       .  A
O208        V215   1.894       .  S
O208        C218   1.267       .  A
O209        V215   1.905       .  S
O209        C219   1.269       .  A
O210        V215   1.928       .  S
O210        C220   1.266       .  A
O211        V216   1.894       .  S
O211        C220   1.268       .  A
O212        V216   1.922       .  S
O212        C219   1.264       .  A
O213        V216   1.921       .  S
O213        C218   1.265       .  A
O214        V216   1.896       .  S
O214        C217   1.268       .  A
V215        V216   2.085       .  T
O221        V229   1.898       .  S
O221        C231   1.268       .  A
O222        V229   1.918       .  S
O222        C232   1.264       .  A
O223        V229   1.912       .  S
O223        C233   1.262       .  A
O224        V229   1.894       .  S
O224        C234   1.268       .  A
O225        V230   1.922       .  S
O225        C234   1.265       .  A
O226        V230   1.895       .  S
O226        C233   1.267       .  A
O227        V230   1.897       .  S
O227        C232   1.267       .  A
O228        V230   1.924       .  S
O228        C231   1.265       .  A
V229        V230   2.086       .  T
C235        C236   1.420       .  A
C235        C240   1.407       .  A
C236        C237   1.398       .  A
C236        N241   1.438       .  S
C237        C238   1.397       .  A
C237        H242   1.084       .  S
C238        C243   1.472       .  S
C238        C239   1.406       .  A
C239        C240   1.400       .  A
C239        N244   1.438       .  S
C240        H245   1.083       .  S
N241        H261   1.046       .  S
N241        H262   1.046       .  S
C243        C246   1.402       .  A
C243        C250   1.410       .  A
N244        H259   1.046       .  S
N244        H260   1.046       .  S
C246        C247   1.402       .  A
C246        H251   1.084       .  S
C247        C248   1.409       .  A
C247        N252   1.438       .  S
C248        C249   1.399       .  A
C249        C250   1.395       .  A
C249        H253   1.083       .  S
C250        N254   1.439       .  S
N252        H255   1.046       .  S
N252        H256   1.045       .  S
N254        H257   1.046       .  S
N254        H258   1.045       .  S
C263        C264   1.417   1_455  A
C263        C268   1.406       .  A
C264        C265   1.398       .  A
C264        N269   1.437       .  S
C265        C266   1.396       .  A
C265        H270   1.084       .  S
C266        C271   1.466       .  S
C266        C267   1.407       .  A
C267        C268   1.402   1_655  A
C267        N272   1.439       .  S
C268        H273   1.083       .  S
N269        H289   1.041   1_655  S
N269        H290   1.046       .  S
C271        C274   1.399       .  A
C271        C278   1.409       .  A
N272        H287   1.046       .  S
N272        H288   1.042       .  S
C274        C275   1.398       .  A
C274        H279   1.084       .  S
C275        C276   1.411       .  A
C275        N280   1.437       .  S
C276        C277   1.403       .  A
C277        C278   1.401       .  A
C277        H281   1.084       .  S
C278        N282   1.439       .  S
N280        H283   1.046       .  S
N280        H284   1.041       .  S
N282        H285   1.046       .  S
N282        H286   1.042       .  S
C291        C292   1.415       .  A
C291        C782   1.405   1_554  A
C292        C293   1.397       .  A
C292        N297   1.437       .  S
C293        C294   1.399   1_554  A
C293        H298   1.084       .  S
C294        C299   1.471       .  S
C294        C781   1.408       .  A
C295        C296   1.399       .  A
C295        C780   1.407       .  A
C295        N300   1.438       .  S
C296        C777   1.405       .  A
C296        H301   1.083       .  S
N297        H317   1.043       .  S
N297        H318   1.046       .  S
C299        C302   1.399   1_556  A
C299        C792   1.409       .  A
N300        H315   1.046       .  S
N300        H316   1.045       .  S
C302        C303   1.398       .  A
C302        H307   1.084       .  S
C303        C304   1.413   1_554  A
C303        N308   1.438       .  S
C304        C791   1.402       .  A
C305        C306   1.400       .  A
C305        C790   1.401       .  A
C305        H309   1.083       .  S
C306        C785   1.409       .  A
C306        N310   1.438       .  S
N308        H311   1.045       .  S
N308        H312   1.044       .  S
N310        H313   1.046       .  S
N310        H314   1.045       .  S
C319        C320   1.416       .  A
C319        C324   1.402       .  A
C320        C321   1.400       .  A
C320        N325   1.438       .  S
C321        C322   1.402       .  A
C321        H326   1.084       .  S
C322        C327   1.481       .  S
C322        C323   1.412       .  A
C323        C324   1.399       .  A
C323        N328   1.438       .  S
C324        H329   1.083       .  S
N325        H345   1.045       .  S
N325        H346   1.046       .  S
C327        C330   1.400       .  A
C327        C334   1.411       .  A
N328        H343   1.046       .  S
N328        H344   1.044       .  S
C330        C331   1.398       .  A
C330        H335   1.083       .  S
C331        C332   1.418   1_565  A
C331        N336   1.438       .  S
C332        C333   1.404       .  A
C333        C334   1.400   1_545  A
C333        H337   1.083       .  S
C334        N338   1.438       .  S
N336        H339   1.046       .  S
N336        H340   1.041       .  S
N338        H341   1.046   1_565  S
N338        H342   1.046       .  S
C347        C348   1.417       .  A
C347        C352   1.407       .  A
C348        C349   1.400       .  A
C348        N353   1.438       .  S
C349        C350   1.396       .  A
C349        H354   1.084       .  S
C350        C355   1.463       .  S
C350        C351   1.404       .  A
C351        C352   1.400       .  A
C351        N356   1.439       .  S
C352        H357   1.083       .  S
N353        H373   1.045       .  S
N353        H374   1.046       .  S
C355        C358   1.400       .  A
C355        C362   1.406       .  A
N356        H371   1.046       .  S
N356        H372   1.044       .  S
C358        C359   1.402       .  A
C358        H363   1.084       .  S
C359        C360   1.408       .  A
C359        N364   1.438       .  S
C360        C361   1.401       .  A
C361        C362   1.398       .  A
C361        H365   1.084       .  S
C362        N366   1.438       .  S
N364        H367   1.046       .  S
N364        H368   1.045       .  S
N366        H369   1.046       .  S
N366        H370   1.044       .  S
C375        C380   1.403       .  A
C375        C862   1.412       .  A
C376        C377   1.394       .  A
C376        C861   1.411       .  A
C376        N381   1.432       .  S
C377        C864   1.399       .  A
C377        H382   1.084       .  S
C378        C383   1.480       .  S
C378        C379   1.413       .  A
C378        C863   1.399       .  A
C379        C380   1.404       .  A
C379        N384   1.438   1_455  S
C380        H385   1.084   1_455  S
N381        H401   1.046       .  S
N381        H402   1.046       .  S
C383        C386   1.399       .  A
C383        C876   1.410       .  A
N384        H399   1.045       .  S
N384        H400   1.045   1_655  S
C386        C387   1.399       .  A
C386        H391   1.083   1_455  S
C387        C388   1.419       .  A
C387        N392   1.439   1_456  S
C388        C875   1.406       .  A
C389        C390   1.402       .  A
C389        C874   1.406       .  A
C389        H393   1.083       .  S
C390        C869   1.408       .  A
C390        N394   1.438       .  S
N392        H395   1.045       .  S
N392        H396   1.046   1_554  S
N394        H397   1.045       .  S
N394        H398   1.045       .  S
C403        C404   1.410       .  A
C403        C894   1.401       .  A
C404        C405   1.398       .  A
C404        N409   1.437   1_554  S
C405        C406   1.401       .  A
C405        H410   1.084   1_554  S
C406        C411   1.474       .  S
C406        C893   1.410       .  A
C407        C408   1.399       .  A
C407        C892   1.409       .  A
C407        N412   1.438   1_545  S
C408        C889   1.401       .  A
C408        H413   1.083   1_545  S
N409        H429   1.044       .  S
N409        H430   1.045       .  S
C411        C418   1.408       .  A
C411        C900   1.399       .  A
N412        H427   1.046       .  S
N412        H428   1.045       .  S
C414        C415   1.398       .  A
C414        C897   1.399       .  A
C414        H419   1.084       .  S
C415        C416   1.416       .  A
C415        N420   1.438   1_545  S
C416        C903   1.404       .  A
C417        C418   1.401       .  A
C417        C902   1.405       .  A
C417        H421   1.083       .  S
C418        N422   1.438       .  S
N420        H423   1.046       .  S
N420        H424   1.044   1_565  S
N422        H425   1.046       .  S
N422        H426   1.045       .  S
C431        C432   1.413       .  A
C431        C436   1.404       .  A
C432        C433   1.397       .  A
C432        N437   1.437       .  S
C433        C434   1.400       .  A
C433        H438   1.083       .  S
C434        C439   1.473       .  S
C434        C435   1.408       .  A
C435        C436   1.398       .  A
C435        N440   1.438       .  S
C436        H441   1.082       .  S
N437        H457   1.043       .  S
N437        H458   1.045       .  S
C439        C442   1.401       .  A
C439        C446   1.408       .  A
N440        H455   1.045       .  S
N440        H456   1.046       .  S
C442        C443   1.398       .  A
C442        H447   1.084       .  S
C443        C444   1.414   1_655  A
C443        N448   1.437       .  S
C444        C445   1.404       .  A
C445        C446   1.397   1_455  A
C445        H449   1.083       .  S
C446        N450   1.439       .  S
N448        H451   1.046       .  S
N448        H452   1.044       .  S
N450        H453   1.045   1_655  S
N450        H454   1.045       .  S
C459        C460   1.419       .  A
C459        C464   1.405   1_545  A
C460        C461   1.399   1_545  A
C460        N465   1.438       .  S
C461        C462   1.397       .  A
C461        H466   1.084       .  S
C462        C467   1.468       .  S
C462        C463   1.406       .  A
C463        C464   1.399       .  A
C463        N468   1.439       .  S
C464        H469   1.083       .  S
N465        H485   1.045       .  S
N465        H486   1.046       .  S
C467        C470   1.397       .  A
C467        C474   1.409       .  A
N468        H483   1.045       .  S
N468        H484   1.045       .  S
C470        C471   1.394       .  A
C470        H475   1.084       .  S
C471        C472   1.410       .  A
C471        N476   1.437       .  S
C472        C473   1.403       .  A
C473        C474   1.404       .  A
C473        H477   1.084       .  S
C474        N478   1.438       .  S
N476        H479   1.046       .  S
N476        H480   1.046       .  S
N478        H481   1.046       .  S
N478        H482   1.045       .  S
C487        N488   1.346       .  A
C487        N492   1.345       .  A
C487        C958   1.466       .  S
N488        C489   1.357   1_455  A
C489        N490   1.374   1_655  A
C489        C614   1.475       .  S
N490        C491   1.374       .  A
C491        N492   1.352       .  A
C491        C537   1.471       .  S
C493        N494   1.349       .  A
C493        N498   1.342       .  A
C493        C945   1.484       .  S
N494        C495   1.356       .  A
C495        N496   1.378       .  A
C495        C521   1.481       .  S
N496        C497   1.378       .  A
C497        N498   1.351       .  A
C497        C585   1.481       .  S
C499        N500   1.341       .  A
C499        N504   1.343       .  A
C499        C930   1.472       .  S
N500        C501   1.352       .  A
C501        N502   1.377       .  A
C501        C538   1.477       .  S
N502        C503   1.378       .  A
C503        N504   1.353       .  A
C503        C692   1.474       .  S
C505        N506   1.343       .  A
C505        N510   1.342       .  A
C505        C917   1.470       .  S
N506        C507   1.353   1_545  A
C507        N508   1.380       .  A
C507        C666   1.480       .  S
N508        C509   1.379   1_565  A
C509        N510   1.351       .  A
C509        C522   1.478       .  S
O511        V519   1.904       .  S
O511        C521   1.269       .  A
O512        V519   1.924       .  S
O512        C522   1.265       .  A
O513        V519   1.920       .  S
O513        C523   1.264       .  A
O514        V519   1.902       .  S
O514        C524   1.270       .  A
O515        V520   1.920       .  S
O515        C524   1.264       .  A
O516        V520   1.893       .  S
O516        C523   1.267       .  A
O517        V520   1.894       .  S
O517        C522   1.268       .  A
O518        V520   1.920       .  S
O518        C521   1.265       .  A
V519        V520   2.086       .  T
C523        C669   1.475       .  S
C524        C597   1.480       .  S
O525        V533   1.931       .  S
O525        C535   1.266       .  A
O526        V533   1.904       .  S
O526        C536   1.271       .  A
O527        V533   1.900       .  S
O527        C537   1.268       .  A
O528        V533   1.925       .  S
O528        C538   1.265       .  A
O529        V534   1.886       .  S
O529        C538   1.266       .  A
O530        V534   1.909       .  S
O530        C537   1.262       .  A
O531        V534   1.919       .  S
O531        C536   1.264       .  A
O532        V534   1.897       .  S
O532        C535   1.268       .  A
V533        V534   2.085       .  T
C535        C645   1.488       .  S
C536        C565   1.484       .  S
C539        N540   1.342       .  A
C539        C889   1.470       .  S
N540        C541   1.351       .  A
C541        N542   1.378       .  A
C541        C625   1.477       .  S
C543        N544   1.354       .  A
C543        C664   1.479   1_544  S
C545        N550   1.343       .  A
C545        C902   1.479       .  S
N546        C547   1.355       .  A
C547        C587   1.482       .  S
N548        C549   1.379       .  A
C549        N550   1.352       .  A
C549        C706   1.484   1_544  S
C551        N552   1.341       .  A
C551        C874   1.482       .  S
N552        C553   1.350       .  A
C553        N554   1.376       .  A
C553        C628   1.475   1_455  S
C555        N556   1.357       .  A
C555        C690   1.477       .  S
C557        N558   1.349       .  A
C557        C861   1.471       .  S
N558        C559   1.359       .  A
C559        N560   1.377       .  A
C559        C612   1.481   1_455  S
C561        N562   1.349       .  A
C561        C703   1.472       .  S
C563        N564   1.344       .  A
C563        N568   1.346       .  A
C563        C846   1.462       .  S
N564        C565   1.354       .  A
C565        N566   1.381   1_455  A
N566        C567   1.379       .  A
C567        N568   1.354   1_655  A
C567        C626   1.486       .  S
C569        N570   1.345       .  A
C569        N574   1.346       .  A
C569        C833   1.479       .  S
N570        C571   1.353       .  A
C571        N572   1.378       .  A
C571        C588   1.480       .  S
N572        C573   1.378       .  A
C573        N574   1.356       .  A
C573        C720   1.483       .  S
O575        V583   1.895       .  S
O575        C585   1.269       .  A
O576        V583   1.919       .  S
O576        C586   1.264       .  A
O577        V583   1.921       .  S
O577        C587   1.264       .  A
O578        V583   1.897       .  S
O578        C588   1.267       .  A
O579        V584   1.924       .  S
O579        C588   1.265       .  A
O580        V584   1.903       .  S
O580        C587   1.269       .  A
O581        V584   1.901       .  S
O581        C586   1.269       .  A
O582        V584   1.922       .  S
O582        C585   1.264       .  A
V583        V584   2.085       .  T
C586        C633   1.482       .  S
C589        N590   1.347       .  A
C589        N594   1.342       .  A
C589        C805   1.475       .  S
N590        C591   1.357       .  A
C591        N592   1.380       .  A
C591        C717   1.484       .  S
N592        C593   1.379       .  A
C593        N594   1.351       .  A
C593        C611   1.482       .  S
C595        N596   1.342       .  A
C595        N600   1.349       .  A
C595        C818   1.483       .  S
N596        C597   1.350       .  A
C597        N598   1.379       .  A
N598        C599   1.380       .  A
C599        N600   1.357       .  A
C599        C627   1.486       .  S
O601        V609   1.896       .  S
O601        C611   1.269       .  A
O602        V609   1.919       .  S
O602        C612   1.265       .  A
O603        V609   1.917       .  S
O603        C613   1.263       .  A
O604        V609   1.888       .  S
O604        C614   1.265       .  A
O605        V610   1.918       .  S
O605        C614   1.265       .  A
O606        V610   1.899       .  S
O606        C613   1.269       .  A
O607        V610   1.897       .  S
O607        C612   1.267       .  A
O608        V610   1.923       .  S
O608        C611   1.264       .  A
V609        V610   2.086       .  T
C613        C639   1.479       .  S
O615        V623   1.925       .  S
O615        C625   1.266       .  A
O616        V623   1.906       .  S
O616        C626   1.270       .  A
O617        V623   1.902       .  S
O617        C627   1.269       .  A
O618        V623   1.918       .  S
O618        C628   1.263       .  A
O619        V624   1.892       .  S
O619        C628   1.268       .  A
O620        V624   1.924       .  S
O620        C627   1.266       .  A
O621        V624   1.921       .  S
O621        C626   1.265       .  A
O622        V624   1.894       .  S
O622        C625   1.267       .  A
V623        V624   2.085       .  T
C629        N634   1.346       .  A
C629        C790   1.465       .  S
N630        C631   1.351       .  A
C631        C691   1.480       .  S
N632        C633   1.380       .  A
C633        N634   1.356       .  A
C635        N640   1.344       .  A
C635        C777   1.477       .  S
N636        C637   1.354       .  A
C637        C665   1.480   1_554  S
N638        C639   1.378       .  A
C639        N640   1.351       .  A
C641        N642   1.346       .  A
C641        N646   1.343       .  A
C641        C749   1.480       .  S
N642        C643   1.356       .  A
C643        N644   1.382       .  A
C643        C705   1.485       .  S
N644        C645   1.380       .  A
C645        N646   1.352       .  A
C647        N648   1.346       .  A
C647        N652   1.344       .  A
C647        C762   1.465       .  S
N648        C649   1.355       .  A
C649        N650   1.375       .  A
C649        C663   1.475       .  S
N650        C651   1.375       .  A
C651        N652   1.353       .  A
C651        C719   1.472       .  S
O653        V661   1.896       .  S
O653        C663   1.267       .  A
O654        V661   1.922       .  S
O654        C664   1.265       .  A
O655        V661   1.921       .  S
O655        C665   1.265       .  A
O656        V661   1.898       .  S
O656        C666   1.269       .  A
O657        V662   1.921       .  S
O657        C666   1.264       .  A
O658        V662   1.896       .  S
O658        C665   1.268       .  A
O659        V662   1.893       .  S
O659        C664   1.267       .  A
O660        V662   1.915       .  S
O660        C663   1.264       .  A
V661        V662   2.086       .  T
C667        N668   1.340       .  A
C667        N672   1.346       .  A
C667        C721   1.481       .  S
N668        C669   1.350       .  A
C669        N670   1.376   1_545  A
N670        C671   1.378       .  A
C671        N672   1.356   1_565  A
C671        C704   1.475       .  S
C673        N674   1.342       .  A
C673        N678   1.344       .  A
C673        C734   1.461       .  S
N674        C675   1.354       .  A
C675        N676   1.376       .  A
C675        C689   1.472       .  S
N676        C677   1.375       .  A
C677        N678   1.353       .  A
C677        C718   1.473       .  S
O679        V687   1.915       .  S
O679        C689   1.263       .  A
O680        V687   1.898       .  S
O680        C690   1.267       .  A
O681        V687   1.899       .  S
O681        C691   1.269       .  A
O682        V687   1.919       .  S
O682        C692   1.264       .  A
O683        V688   1.895       .  S
O683        C692   1.267       .  A
O684        V688   1.921       .  S
O684        C691   1.264       .  A
O685        V688   1.918       .  S
O685        C690   1.265       .  A
O686        V688   1.892       .  S
O686        C689   1.267       .  A
V687        V688   2.086       .  T
O693        V701   1.915       .  S
O693        C703   1.263       .  A
O694        V701   1.894       .  S
O694        C704   1.267       .  A
O695        V701   1.904       .  S
O695        C705   1.268       .  A
O696        V701   1.926       .  S
O696        C706   1.266       .  A
O697        V702   1.896       .  S
O697        C706   1.269       .  A
O698        V702   1.924       .  S
O698        C705   1.265       .  A
O699        V702   1.919       .  S
O699        C704   1.264       .  A
O700        V702   1.895       .  S
O700        C703   1.267       .  A
V701        V702   2.085       .  T
O707        V715   1.898       .  S
O707        C717   1.268       .  A
O708        V715   1.917       .  S
O708        C718   1.264       .  A
O709        V715   1.913       .  S
O709        C719   1.263       .  A
O710        V715   1.896       .  S
O710        C720   1.268       .  A
O711        V716   1.923       .  S
O711        C720   1.266       .  A
O712        V716   1.894       .  S
O712        C719   1.267       .  A
O713        V716   1.895       .  S
O713        C718   1.267       .  A
O714        V716   1.924       .  S
O714        C717   1.266       .  A
V715        V716   2.086       .  T
C721        C722   1.421       .  A
C721        C726   1.407       .  A
C722        C723   1.397       .  A
C722        N727   1.438       .  S
C723        C724   1.396       .  A
C723        H728   1.084       .  S
C724        C729   1.468       .  S
C724        C725   1.405       .  A
C725        C726   1.400       .  A
C725        N730   1.438       .  S
C726        H731   1.083       .  S
N727        H747   1.046       .  S
N727        H748   1.046       .  S
C729        C732   1.401       .  A
C729        C736   1.407       .  A
N730        H745   1.046       .  S
N730        H746   1.046       .  S
C732        C733   1.402       .  A
C732        H737   1.084       .  S
C733        C734   1.410       .  A
C733        N738   1.438       .  S
C734        C735   1.400       .  A
C735        C736   1.395       .  A
C735        H739   1.082       .  S
C736        N740   1.439       .  S
N738        H741   1.046       .  S
N738        H742   1.044       .  S
N740        H743   1.046       .  S
N740        H744   1.045       .  S
C749        C750   1.418   1_455  A
C749        C754   1.406       .  A
C750        C751   1.398       .  A
C750        N755   1.437       .  S
C751        C752   1.396       .  A
C751        H756   1.084       .  S
C752        C757   1.466       .  S
C752        C753   1.407       .  A
C753        C754   1.402   1_655  A
C753        N758   1.439       .  S
C754        H759   1.083       .  S
N755        H775   1.040   1_655  S
N755        H776   1.046       .  S
C757        C760   1.399       .  A
C757        C764   1.409       .  A
N758        H773   1.046   1_655  S
N758        H774   1.042       .  S
C760        C761   1.398       .  A
C760        H765   1.084       .  S
C761        C762   1.411       .  A
C761        N766   1.438       .  S
C762        C763   1.402       .  A
C763        C764   1.401       .  A
C763        H767   1.084       .  S
C764        N768   1.439       .  S
N766        H769   1.046       .  S
N766        H770   1.041       .  S
N768        H771   1.046       .  S
N768        H772   1.042       .  S
C777        C778   1.416       .  A
C778        C779   1.398       .  A
C778        N783   1.437       .  S
C779        C780   1.398       .  A
C779        H784   1.084       .  S
C780        C785   1.470       .  S
C781        C782   1.399       .  A
C781        N786   1.438       .  S
C782        H787   1.083       .  S
N783        H803   1.043       .  S
N783        H804   1.045       .  S
C785        C788   1.399       .  A
N786        H801   1.046       .  S
N786        H802   1.045       .  S
C788        C789   1.397       .  A
C788        H793   1.084       .  S
C789        C790   1.412       .  A
C789        N794   1.438       .  S
C791        C792   1.399       .  A
C791        H795   1.082       .  S
C792        N796   1.438       .  S
N794        H797   1.045       .  S
N794        H798   1.044       .  S
N796        H799   1.046       .  S
N796        H800   1.045       .  S
C805        C806   1.415       .  A
C805        C810   1.402       .  A
C806        C807   1.399       .  A
C806        N811   1.438       .  S
C807        C808   1.402       .  A
C807        H812   1.084       .  S
C808        C813   1.482       .  S
C808        C809   1.412       .  A
C809        C810   1.401       .  A
C809        N814   1.438       .  S
C810        H815   1.083       .  S
N811        H831   1.045       .  S
N811        H832   1.046       .  S
C813        C816   1.400       .  A
C813        C820   1.411       .  A
N814        H829   1.046       .  S
N814        H830   1.044       .  S
C816        C817   1.399       .  A
C816        H821   1.083       .  S
C817        C818   1.419   1_565  A
C817        N822   1.438       .  S
C818        C819   1.404       .  A
C819        C820   1.400   1_545  A
C819        H823   1.083       .  S
C820        N824   1.438       .  S
N822        H825   1.046       .  S
N822        H826   1.041       .  S
N824        H827   1.046   1_565  S
N824        H828   1.046       .  S
C833        C834   1.416       .  A
C833        C838   1.407       .  A
C834        C835   1.401       .  A
C834        N839   1.437       .  S
C835        C836   1.397       .  A
C835        H840   1.084       .  S
C836        C841   1.465       .  S
C836        C837   1.404       .  A
C837        C838   1.400       .  A
C837        N842   1.439       .  S
C838        H843   1.083       .  S
N839        H859   1.045       .  S
N839        H860   1.046       .  S
C841        C844   1.400       .  A
C841        C848   1.406       .  A
N842        H857   1.045       .  S
N842        H858   1.044       .  S
C844        C845   1.402       .  A
C844        H849   1.084       .  S
C845        C846   1.409       .  A
C845        N850   1.438       .  S
C846        C847   1.402       .  A
C847        C848   1.398       .  A
C847        H851   1.084       .  S
C848        N852   1.439       .  S
N850        H853   1.046       .  S
N850        H854   1.045       .  S
N852        H855   1.046       .  S
N852        H856   1.044       .  S
C861        C866   1.402       .  A
C862        C863   1.393       .  A
C862        N867   1.432   1_556  S
C863        H868   1.084       .  S
C864        C869   1.476       .  S
C864        C865   1.412       .  A
C865        C866   1.404       .  A
C865        N870   1.438   1_455  S
C866        H871   1.084       .  S
N867        H887   1.045       .  S
N867        H888   1.046   1_554  S
C869        C872   1.398       .  A
N870        H885   1.045       .  S
N870        H886   1.045   1_655  S
C872        C873   1.398       .  A
C872        H877   1.084   1_455  S
C873        C874   1.419       .  A
C873        N878   1.438   1_455  S
C875        C876   1.402       .  A
C875        H879   1.083       .  S
C876        N880   1.439       .  S
N878        H881   1.046       .  S
N878        H882   1.046       .  S
N880        H883   1.045       .  S
N880        H884   1.045       .  S
C889        C890   1.412       .  A
C890        C891   1.397       .  A
C890        N895   1.437       .  S
C891        C892   1.400       .  A
C891        H896   1.084       .  S
C892        C897   1.473       .  S
C893        C894   1.399       .  A
C893        N898   1.438   1_545  S
C894        H899   1.082       .  S
N895        H915   1.044       .  S
N895        H916   1.046       .  S
C897        C904   1.409       .  A
N898        H913   1.046       .  S
N898        H914   1.045   1_565  S
C900        C901   1.398       .  A
C900        H905   1.084   1_545  S
C901        C902   1.418       .  A
C901        N906   1.438   1_544  S
C903        C904   1.400       .  A
C903        H907   1.083       .  S
C904        N908   1.438       .  S
N906        H909   1.046       .  S
N906        H910   1.043       .  S
N908        H911   1.046       .  S
N908        H912   1.044       .  S
C917        C918   1.412       .  A
C917        C922   1.404       .  A
C918        C919   1.397       .  A
C918        N923   1.437       .  S
C919        C920   1.401       .  A
C919        H924   1.084       .  S
C920        C925   1.471       .  S
C920        C921   1.407       .  A
C921        C922   1.396       .  A
C921        N926   1.439       .  S
C922        H927   1.081       .  S
N923        H943   1.043       .  S
N923        H944   1.045       .  S
C925        C928   1.400       .  A
C925        C932   1.407       .  A
N926        H941   1.045       .  S
N926        H942   1.046       .  S
C928        C929   1.397       .  A
C928        H933   1.084       .  S
C929        C930   1.414   1_655  A
C929        N934   1.437       .  S
C930        C931   1.404       .  A
C931        C932   1.397   1_455  A
C931        H935   1.083       .  S
C932        N936   1.439       .  S
N934        H937   1.046       .  S
N934        H938   1.043   1_655  S
N936        H939   1.045   1_655  S
N936        H940   1.045       .  S
C945        C946   1.421       .  A
C945        C950   1.406   1_545  A
C946        C947   1.400   1_545  A
C946        N951   1.438       .  S
C947        C948   1.397       .  A
C947        H952   1.084       .  S
C948        C953   1.474       .  S
C948        C949   1.408       .  A
C949        C950   1.399       .  A
C949        N954   1.439       .  S
C950        H955   1.083       .  S
N951        H971   1.045       .  S
N951        H972   1.046       .  S
C953        C956   1.399       .  A
C953        C960   1.412       .  A
N954        H969   1.045       .  S
N954        H970   1.045       .  S
C956        C957   1.394       .  A
C956        H961   1.084       .  S
C957        C958   1.409       .  A
C957        N962   1.437       .  S
C958        C959   1.403       .  A
C959        C960   1.404       .  A
C959        H963   1.084       .  S
C960        N964   1.439       .  S
N962        H965   1.045       .  S
N962        H966   1.046       .  S
N964        H967   1.046       .  S
N964        H968   1.044       .  S
