geometry optimzed in LAMMPS
_audit_creation_date              2020-11-30 
_audit_creation_method            'lammps2cif' 
_symmetry_space_group_name_H-M    'P1' 
_symmetry_Int_Tables_number       1 
_symmetry_cell_setting            triclinic 
loop_ 
_symmetry_equiv_pos_as_xyz 
  x,y,z 
_cell_length_a                    25.738137 
_cell_length_b                    25.687471439441108 
_cell_length_c                    24.672265399644814 
_cell_angle_alpha                 88.12486133740083 
_cell_angle_beta                  79.24543793620832 
_cell_angle_gamma                 84.84020887882895 
loop_ 
_atom_site_label 
_atom_site_type_symbol 
_atom_site_fract_x 
_atom_site_fract_y 
_atom_site_fract_z 
_atom_site_charge 
O1          O  0.99377127  0.62534680  0.95414933    -0.81000
O2          O  0.97180918  0.39300064  0.97898510    -0.65700
O3          O  0.96443819  0.53741266  0.01129081    -1.12300
C4          C  0.14971111  0.49627944  0.02157128     1.05900
O5          O  0.00927058  0.37569964  0.05183707    -0.78900
O6          O  0.04665054  0.44516869  0.11178256    -0.66500
Ni7        Ni  0.93137329  0.58816978  0.96752006     1.34900
C8          C  0.03011544  0.49090928  0.12867706     0.84600
O9          O  0.88992743  0.46827781  0.99304115    -0.79400
O10         O  0.86621723  0.55344627  0.97904726    -0.89700
C11         C  0.98713157  0.36048652  0.01380501     0.84200
O12         O  0.95349454  0.55897190  0.89562188    -0.67900
O13         O  0.13547145  0.44990805  0.03069737    -0.87200
C14         C  0.97319567  0.51430923  0.87811609     0.85000
C15         C  0.85476981  0.50611143  0.98842525     1.06600
H16         H  0.06083762  0.46248955  0.95845179     0.38400
O17         O  0.04065593  0.46669217  0.99547069    -1.09900
O18         O  0.02495537  0.52932509  0.09492287    -0.66500
Ni19       Ni  0.03963587  0.53839044  0.01386702     1.26300
O20         O  0.98113714  0.47618639  0.91140229    -0.66700
O21         O  0.11644450  0.53535820  0.01419999    -0.79000
C22         C  0.01287697  0.64338050  0.99274583     0.84400
O23         O  0.03342685  0.61253739  0.02599275    -0.66200
Ni24       Ni  0.07087184  0.41515934  0.04033069     1.27400
Ni25       Ni  0.96612752  0.46618216  0.99240890     1.26100
H26         H  0.94467688  0.54098760  0.04851763     0.39000
O27         O  0.01977105  0.62611075  0.45424240    -0.81000
O28         O  0.96810800  0.40028773  0.46534348    -0.65700
O29         O  0.96875688  0.54260994  0.50655365    -1.12300
C30         C  0.13724506  0.47893423  0.54184855     1.05900
O31         O  0.98553019  0.37915525  0.54740448    -0.78900
O32         O  0.02287004  0.43891752  0.61861086    -0.66500
Ni33       Ni  0.95219313  0.59855588  0.45872587     1.34900
C34         C  0.01162503  0.48534283  0.63565175     0.84600
O35         O  0.89673681  0.48574854  0.46907977    -0.79400
O36         O  0.88401651  0.57362030  0.46142651    -0.89700
C37         C  0.97519094  0.36550095  0.50182058     0.84200
O38         O  0.97601874  0.56864919  0.38721847    -0.67900
O39         O  0.11843360  0.43432457  0.54975240    -0.87200
C40         C  0.99203999  0.52290359  0.37022284     0.85000
C41         C  0.86768288  0.52789421  0.46377002     1.06600
H42         H  0.06157577  0.45888973  0.46584896     0.38400
O43         O  0.03645224  0.46432580  0.49991429    -1.09900
O44         O  0.01373459  0.52469171  0.60194208    -0.66500
Ni45       Ni  0.03902170  0.53426661  0.52175018     1.26300
O46         O  0.99481116  0.48406747  0.40385925    -0.66700
O47         O  0.11008068  0.52134979  0.53295404    -0.79000
C48         C  0.03611525  0.64055637  0.49634984     0.84400
O49         O  0.04033992  0.60780943  0.53563961    -0.66200
Ni50       Ni  0.05141576  0.40844025  0.54843068     1.27400
Ni51       Ni  0.96705297  0.47304507  0.48290157     1.26100
H52         H  0.94408561  0.54715515  0.54114188     0.39000
O53         O  0.45923408  0.37751757  0.01024675    -0.81000
O54         O  0.47596678  0.61074792  0.95554887    -0.65700
O55         O  0.51081216  0.46262847  0.96358278    -1.12300
C56         C  0.52307683  0.50272834  0.14848286     1.05900
O57         O  0.54859005  0.61736546  0.98811416    -0.78900
O58         O  0.60738831  0.54753405  0.03912512    -0.66500
Ni59       Ni  0.46805837  0.41435261  0.94051134     1.34900
C60         C  0.62509854  0.50185078  0.02333697     0.84600
O61         O  0.48781838  0.53262938  0.87966040    -0.79400
O62         O  0.47576839  0.44789130  0.86904246    -0.89700
C63         C  0.50959433  0.63918875  0.96879123     0.84200
O64         O  0.39921945  0.44958519  0.96376123    -0.67900
O65         O  0.52860060  0.54947233  0.13016896    -0.87200
C66         C  0.38180031  0.49585581  0.97797452     0.85000
C67         C  0.48414672  0.49378938  0.84952880     1.06600
H68         H  0.46091855  0.53977653  0.05617276     0.38400
O69         O  0.49620469  0.53384340  0.03432248    -1.09900
O70         O  0.59456056  0.46598126  0.01934691    -0.66500
Ni71       Ni  0.51742544  0.46112593  0.03990994     1.26300
O72         O  0.41283763  0.53217930  0.97783865    -0.66700
O73         O  0.52099777  0.46395677  0.11760164    -0.79000
C74         C  0.49818782  0.35723675  0.03072855     0.84400
O75         O  0.53263279  0.38606527  0.04157254    -0.66200
Ni76       Ni  0.53794398  0.58239772  0.05855694     1.27400
Ni77       Ni  0.49032085  0.53559617  0.95760739     1.26100
H78         H  0.54582377  0.45619505  0.94149781     0.39000
O79         O  0.45903093  0.63281485  0.48146675    -0.81000
O80         O  0.47582621  0.38346598  0.47749565    -0.65700
O81         O  0.46244401  0.52784120  0.51523962    -1.12300
C82         C  0.64623280  0.50439839  0.49639451     1.05900
O83         O  0.53474033  0.36016657  0.53024537    -0.78900
O84         O  0.54510409  0.43830058  0.59419533    -0.66500
Ni85       Ni  0.42248217  0.57305117  0.47171613     1.34900
C86         C  0.53383233  0.48462098  0.61114639     0.84600
O87         O  0.39417384  0.45263546  0.51385149    -0.79400
O88         O  0.37742491  0.52050542  0.46055413    -0.89700
C89         C  0.50319671  0.34852696  0.49975290     0.84200
O90         O  0.47123963  0.55419668  0.40558122    -0.67900
O91         O  0.63628903  0.46128100  0.52128608    -0.87200
C92         C  0.47871209  0.50813038  0.38656796     0.85000
C93         C  0.36194226  0.48419914  0.49402189     1.06600
H94         H  0.55739060  0.45690909  0.44373448     0.38400
O95         O  0.54240521  0.46123731  0.48243184    -1.09900
O96         O  0.53808808  0.52417978  0.57865512    -0.66500
Ni97       Ni  0.53708384  0.53380303  0.50024363     1.26300
O98         O  0.46840961  0.46808795  0.41751592    -0.66700
O99         O  0.61114353  0.53703194  0.48246197    -0.79000
C100        C  0.49717268  0.64180107  0.50480303     0.84400
O101        O  0.53069803  0.60626538  0.51683892    -0.66200
Ni102      Ni  0.58212469  0.41428216  0.52439154     1.27400
Ni103      Ni  0.46832318  0.45554468  0.49609183     1.26100
H104        H  0.44756240  0.53207515  0.55397046     0.39000
N105        N  0.97039669  0.94389719  0.05593639    -0.36700
N106        N  0.96164504  0.05825955  0.05825131    -0.57300
N107        N  0.97912820  0.06303119  0.93991500    -0.36700
N108        N  0.99164727  0.94823829  0.93720129    -0.57300
C109        C  0.97323075  0.95139576  0.10914571     0.26900
C110        C  0.98738547  0.89331387  0.04484978     0.26900
C111        C  0.98555517  0.11325545  0.95033186     0.26900
C112        C  0.99946164  0.05485562  0.88606456     0.26900
C113        C  0.95010939  0.04807733  0.11290101     0.35500
C114        C  0.95452051  0.11067442  0.05194033     0.35500
C115        C  0.98630656  0.89648899  0.94460921     0.35500
C116        C  0.98943218  0.95926525  0.88383672     0.35500
C117        C  0.99058385  0.90465471  0.13254752    -0.22000
C118        C  0.99947215  0.86802041  0.09196509    -0.22000
C119        C  0.00942783  0.13749513  0.90220472    -0.22000
C120        C  0.01811341  0.10063146  0.86157281    -0.22000
C121        C  0.93524585  0.09426027  0.14152259    -0.23100
C122        C  0.93789167  0.13393486  0.10284399    -0.23100
C123        C  0.98117758  0.87435829  0.89566777    -0.23100
C124        C  0.98273058  0.91427349  0.85715347    -0.23000
C125        C  0.95996469  0.99888049  0.13774718    -0.18400
C126        C  0.98956068  0.86863881  0.99420613    -0.18400
C127        C  0.99851800  0.00817850  0.85770202    -0.18400
C128        C  0.96951819  0.13809993  0.00179725    -0.18400
H129        H  0.99640147  0.89756004  0.17457310     0.14500
H130        H  0.01323700  0.82736665  0.09675385     0.14500
H131        H  0.01950194  0.17758790  0.89685797     0.14500
H132        H  0.03600903  0.10685395  0.81880567     0.14500
H133        H  0.92562096  0.09906892  0.18578542     0.12800
H134        H  0.93070552  0.17528388  0.11139551     0.12800
H135        H  0.97719591  0.83370666  0.88840334     0.12800
H136        H  0.98055219  0.91038422  0.81409581     0.12800
H137        H  0.95323209  0.97042309  0.03042761     0.26100
H138        H  0.95723363  0.03727924  0.96618009     0.26000
N139        N  0.03040112  0.94585924  0.54860012    -0.36700
N140        N  0.01746054  0.06310025  0.54031065    -0.57300
N141        N  0.99629305  0.05886315  0.43317626    -0.36700
N142        N  0.00551905  0.94183257  0.44130689    -0.57300
C143        C  0.01009083  0.96334782  0.59986230     0.26900
C144        C  0.01401030  0.89753955  0.54594567     0.26900
C145        C  0.98538023  0.11109878  0.44148065     0.26900
C146        C  0.97566775  0.04720486  0.38921072     0.26900
C147        C  0.03252903  0.05494546  0.58935271     0.35500
C148        C  0.02089474  0.11426197  0.52753767     0.35500
C149        C  0.01366204  0.88934653  0.44967966     0.35500
C150        C  0.99105355  0.94874027  0.39144736     0.35500
C151        C  0.97877864  0.92687159  0.62914097    -0.22000
C152        C  0.97947293  0.88620067  0.59401709    -0.22000
C153        C  0.95834765  0.13278724  0.40149918    -0.22000
C154        C  0.95270607  0.09262213  0.36818434    -0.22000
C155        C  0.04704706  0.10099487  0.60773994    -0.23100
C156        C  0.03985340  0.13872365  0.56826050    -0.23100
C157        C  0.00055754  0.86336519  0.40624253    -0.23100
C158        C  0.98784894  0.90069669  0.36898139    -0.23000
C159        C  0.02208411  0.00983004  0.62169940    -0.18400
C160        C  0.02688185  0.86575985  0.49914489    -0.18400
C161        C  0.97853423  0.99725522  0.36587830    -0.18400
C162        C  0.99964544  0.13968733  0.48388538    -0.18400
H163        H  0.95674159  0.92987975  0.67096060     0.14500
H164        H  0.95707069  0.85225846  0.60264631     0.14500
H165        H  0.94405234  0.17328680  0.39673419     0.14500
H166        H  0.93327626  0.09642088  0.33277590     0.14500
H167        H  0.05829340  0.10738246  0.64697999     0.12800
H168        H  0.04505792  0.17986186  0.57075561     0.12800
H169        H  0.99662306  0.82217498  0.40259652     0.12800
H170        H  0.97508305  0.89320667  0.33078704     0.12800
H171        H  0.05754406  0.96391647  0.51867996     0.26100
H172        H  0.02062866  0.03293424  0.45244551     0.26000
N173        N  0.49636698  0.95172352  0.94027481    -0.36700
N174        N  0.49549953  0.93227415  0.05403919    -0.57300
N175        N  0.49603141  0.04660515  0.06967083    -0.36700
N176        N  0.50203076  0.06541320  0.95487448    -0.57300
C177        C  0.50484188  0.89884869  0.93965255     0.26900
C178        C  0.50872876  0.96892846  0.88769683     0.26900
C179        C  0.50602373  0.02681265  0.11829783     0.26900
C180        C  0.50872298  0.09692079  0.06615377     0.26900
C181        C  0.48813105  0.88318537  0.04060327     0.35500
C182        C  0.48701133  0.93356928  0.10950813     0.35500
C183        C  0.49351448  0.06560292  0.90267067     0.35500
C184        C  0.49405463  0.11566742  0.97124621     0.35500
C185        C  0.52181593  0.88231487  0.88590493    -0.22000
C186        C  0.52439787  0.92646419  0.85310861    -0.22000
C187        C  0.52468591  0.06517828  0.14633185    -0.22000
C188        C  0.52650796  0.10934128  0.11330002    -0.22000
C189        C  0.47587402  0.85274363  0.08783056    -0.23100
C190        C  0.47483046  0.88480156  0.13162367    -0.23100
C191        C  0.48062744  0.11626839  0.88538104    -0.23100
C192        C  0.48093380  0.14808984  0.92901299    -0.23000
C193        C  0.49605576  0.86496357  0.98607582    -0.18400
C194        C  0.50081968  0.02119908  0.86921805    -0.18400
C195        C  0.50219398  0.13253074  0.02261168    -0.18400
C196        C  0.49455183  0.97668725  0.14030050    -0.18400
H197        H  0.53095655  0.84257633  0.87161203     0.14500
H198        H  0.53548602  0.92701763  0.80857755     0.14500
H199        H  0.53538229  0.06195216  0.18677381     0.14500
H200        H  0.53903299  0.14647367  0.12309231     0.14500
H201        H  0.46903579  0.81169982  0.09043639     0.12800
H202        H  0.46730690  0.87319109  0.17475744     0.12800
H203        H  0.47249249  0.12898711  0.84531321     0.12800
H204        H  0.47309358  0.19019911  0.92941656     0.12800
H205        H  0.47714217  0.97462831  0.97309490     0.26100
H206        H  0.47548748  0.02857662  0.04414278     0.26000
N207        N  0.47356163  0.04737692  0.44472373    -0.36700
N208        N  0.48978907  0.93352384  0.45786503    -0.57300
N209        N  0.49812709  0.94467693  0.57053749    -0.36700
N210        N  0.48571907  0.05793050  0.55668872    -0.57300
C211        C  0.48458537  0.03237066  0.39168748     0.26900
C212        C  0.48076673  0.09887160  0.44481168     0.26900
C213        C  0.51320699  0.89311956  0.56452356     0.26900
C214        C  0.51367178  0.95982674  0.61636248     0.26900
C215        C  0.47717896  0.93684209  0.40724058     0.35500
C216        C  0.48690869  0.88306708  0.47421986     0.35500
C217        C  0.47034302  0.10809946  0.54565508     0.35500
C218        C  0.48400548  0.05463273  0.61150675     0.35500
C219        C  0.49732563  0.07515509  0.35747613    -0.22000
C220        C  0.49491746  0.11723962  0.39115186    -0.22000
C221        C  0.53828376  0.87496460  0.60734021    -0.22000
C222        C  0.53857751  0.91723170  0.64024192    -0.22000
C223        C  0.46655262  0.88834523  0.39105067    -0.23100
C224        C  0.47251458  0.85419787  0.43369279    -0.23100
C225        C  0.45906796  0.13690409  0.59355047    -0.23100
C226        C  0.46767176  0.10294948  0.63543296    -0.23000
C227        C  0.48040595  0.98179830  0.37325765    -0.18400
C228        C  0.47399703  0.12964768  0.49218629    -0.18400
C229        C  0.50129755  0.00983641  0.63963510    -0.18400
C230        C  0.50199618  0.86193805  0.52294424    -0.18400
H231        H  0.50716993  0.07601026  0.31285839     0.14500
H232        H  0.50272098  0.15677168  0.37768730     0.14500
H233        H  0.55417197  0.83537634  0.61437612     0.14500
H234        H  0.55447725  0.91650459  0.67792285     0.14500
H235        H  0.45659898  0.87844886  0.35213057     0.12800
H236        H  0.46817955  0.81265725  0.43411756     0.12800
H237        H  0.44755518  0.17837875  0.59755728     0.12800
H238        H  0.46390720  0.11311958  0.67830217     0.12800
H239        H  0.45727998  0.02478640  0.47827065     0.26100
H240        H  0.47247526  0.96663737  0.54907231     0.26000
C241        C  0.45460285  0.01195136  0.73546667    -0.20400
C242        C  0.50242130  0.01532690  0.69833022    -0.07000
C243        C  0.54819382  0.02846339  0.71662433     0.13900
C244        C  0.54596191  0.03428224  0.77315996    -0.20500
C245        C  0.49861283  0.02834963  0.81049462    -0.07000
C246        C  0.45197553  0.01915529  0.79159768     0.13900
C247        C  0.39988313  0.01619833  0.83086919    -0.23800
H248        H  0.41929703  0.00389768  0.72024050     0.15200
H249        H  0.58146171  0.04127344  0.78857101     0.15200
C250        C  0.59896479  0.03583906  0.67666129    -0.23800
H251        H  0.36723325  0.00948540  0.80884732     0.05400
H252        H  0.38923701  0.05355666  0.85330312     0.08600
H253        H  0.40305464  0.98365264  0.86109359     0.08600
H254        H  0.59199709  0.06790580  0.64689544     0.08600
H255        H  0.61297484  0.99924326  0.65373207     0.08600
H256        H  0.63083022  0.04614284  0.69814110     0.05400
C257        C  0.53029229  0.95720414  0.28110359    -0.20400
C258        C  0.48203169  0.97519434  0.31406392    -0.07000
C259        C  0.43659527  0.98797644  0.29063491     0.13900
C260        C  0.44115133  0.98529402  0.23353734    -0.20500
C261        C  0.49001262  0.96984386  0.20026455    -0.07000
C262        C  0.53478845  0.95427916  0.22397664     0.13900
C263        C  0.58731829  0.93640568  0.18878989    -0.23800
H264        H  0.56465765  0.94689792  0.30006503     0.15200
H265        H  0.40711437  0.99695498  0.21448191     0.15200
C266        C  0.38381565  0.00494336  0.32588641    -0.23800
H267        H  0.61824122  0.92589607  0.21413877     0.05400
H268        H  0.60117707  0.96803774  0.15933791     0.08600
H269        H  0.58286151  0.90143357  0.16533134     0.08600
H270        H  0.38682104  0.04127873  0.34782703     0.08600
H271        H  0.37181014  0.97368508  0.35664063     0.08600
H272        H  0.35224566  0.01277425  0.30081568     0.05400
C273        C  0.96521828  0.03345143  0.77223233    -0.20400
C274        C  0.00686991  0.01091904  0.79684316    -0.07000
C275        C  0.05470014  0.99046187  0.76380620     0.13900
C276        C  0.05901954  0.99142330  0.70640556    -0.20500
C277        C  0.01687707  0.01292847  0.68197143    -0.07000
C278        C  0.96968090  0.03474699  0.71488826     0.13900
C279        C  0.92372009  0.05807496  0.68956742    -0.23800
H280        H  0.92883868  0.04923170  0.79815540     0.15200
H281        H  0.09508439  0.97500321  0.68042922     0.15200
C282        C  0.10103314  0.96804949  0.78902755    -0.23800
H283        H  0.88954078  0.07245606  0.72150923     0.05400
H284        H  0.91016749  0.02817801  0.66512491     0.08600
H285        H  0.93602408  0.09162209  0.66215813     0.08600
H286        H  0.08992162  0.93369861  0.81566905     0.08600
H287        H  0.11327005  0.99817900  0.81421042     0.08600
H288        H  0.13573512  0.95510313  0.75697598     0.05400
C289        C  0.91892837  0.99275624  0.23685350    -0.20400
C290        C  0.96433642  0.99809207  0.19644841    -0.07000
C291        C  0.01394858  0.00226919  0.21162521     0.13900
C292        C  0.01709844  0.00110859  0.26742192    -0.20500
C293        C  0.97180968  0.99626440  0.30791455    -0.07000
C294        C  0.92213133  0.99195098  0.29293829     0.13900
C295        C  0.87298042  0.98686972  0.33601174    -0.23800
H296        H  0.88115358  0.98952520  0.22437595     0.15200
H297        H  0.05495306  0.00439634  0.27975100     0.15200
C298        C  0.06339641  0.00813568  0.16894476    -0.23800
H299        H  0.83743808  0.98414792  0.31705864     0.05400
H300        H  0.86559492  0.02147886  0.36302912     0.08600
H301        H  0.87819811  0.95107830  0.36155019     0.08600
H302        H  0.05794039  0.04399583  0.14355398     0.08600
H303        H  0.07174162  0.97367978  0.14173156     0.08600
H304        H  0.09864579  0.01129713  0.18824652     0.05400
C305        C  0.53111666  0.20113227  0.49009434    -0.20400
C306        C  0.48118789  0.18612415  0.48591309    -0.07000
C307        C  0.43904511  0.22447887  0.48262649     0.13900
C308        C  0.44783157  0.27741900  0.48500564    -0.20500
C309        C  0.49714664  0.29255513  0.49252707    -0.07000
C310        C  0.53973554  0.25363623  0.49406506     0.13900
C311        C  0.59458619  0.26640843  0.49980452    -0.23800
H312        H  0.56302776  0.17108616  0.49271340     0.15200
H313        H  0.41530141  0.30686206  0.48320535     0.15200
C314        C  0.38423863  0.21079767  0.47857506    -0.23800
H315        H  0.62331238  0.23116193  0.49564931     0.05400
H316        H  0.59367941  0.28248724  0.54119718     0.08600
H317        H  0.60969806  0.29493220  0.46716282     0.08600
H318        H  0.35535590  0.22649447  0.51473696     0.08600
H319        H  0.38138118  0.16805279  0.47744776     0.08600
H320        H  0.37297685  0.22857913  0.44034306     0.05400
C321        C  0.54904594  0.71933609  0.49867684    -0.20400
C322        C  0.50161013  0.69638873  0.51844881    -0.07000
C323        C  0.45754911  0.72691511  0.54806795     0.13900
C324        C  0.46073701  0.78056546  0.55345117    -0.20500
C325        C  0.50655111  0.80429417  0.52942609    -0.07000
C326        C  0.55190420  0.77324226  0.50337510     0.13900
C327        C  0.60289532  0.79621883  0.47815872    -0.23800
H328        H  0.58303008  0.69572729  0.47673712     0.15200
H329        H  0.42622927  0.80474630  0.57347839     0.15200
C330        C  0.40694689  0.70321240  0.57370482    -0.23800
H331        H  0.63578512  0.77729080  0.49718494     0.05400
H332        H  0.60129739  0.83891932  0.48441323     0.08600
H333        H  0.61186725  0.78903043  0.43311252     0.08600
H334        H  0.41588344  0.67055498  0.60206461     0.08600
H335        H  0.38775472  0.68844561  0.54125840     0.08600
H336        H  0.37790117  0.73227048  0.59786416     0.05400
C337        C  0.54832307  0.27057155  0.01109812    -0.20400
C338        C  0.50297781  0.29962098  0.03903911    -0.07000
C339        C  0.45948646  0.27283163  0.06633762     0.13900
C340        C  0.46110632  0.21817679  0.06209060    -0.20500
C341        C  0.50488412  0.18965740  0.03076304    -0.07000
C342        C  0.54969159  0.21591933  0.00647515     0.13900
C343        C  0.59863599  0.18629684  0.97508654    -0.23800
H344        H  0.58161316  0.29100868  0.99013735     0.15200
H345        H  0.42734199  0.19772499  0.08177553     0.15200
C346        C  0.41133357  0.30180500  0.10011764    -0.23800
H347        H  0.63041865  0.21249975  0.95964243     0.05400
H348        H  0.58900486  0.16705870  0.93901869     0.08600
H349        H  0.61424894  0.15608642  0.00251978     0.08600
H350        H  0.39062665  0.32868447  0.07342018     0.08600
H351        H  0.42364691  0.32461783  0.13233514     0.08600
H352        H  0.38245098  0.27460869  0.12104390     0.05400
C353        C  0.55112065  0.72330509  0.96096155    -0.20400
C354        C  0.50456275  0.69750180  0.96439627    -0.07000
C355        C  0.45512441  0.72798115  0.97086694     0.13900
C356        C  0.45354911  0.78252952  0.97726991    -0.20500
C357        C  0.50003124  0.80742565  0.97684796    -0.07000
C358        C  0.54957559  0.77753176  0.96689949     0.13900
C359        C  0.60165638  0.80138158  0.96282341    -0.23800
H360        H  0.58938476  0.70074405  0.95496821     0.15200
H361        H  0.41576388  0.80588705  0.98362129     0.15200
C362        C  0.40382472  0.70340125  0.97294428    -0.23800
H363        H  0.62318620  0.78345596  0.99473719     0.05400
H364        H  0.59693710  0.84422343  0.96874672     0.08600
H365        H  0.62631052  0.79361879  0.92143927     0.08600
H366        H  0.39788442  0.67487920  0.00787101     0.08600
H367        H  0.40477582  0.68329027  0.93357242     0.08600
H368        H  0.36912833  0.73300783  0.97876926     0.05400
C369        C  0.46451551  0.46738609  0.76000340    -0.20400
C370        C  0.49131073  0.49998315  0.78817549    -0.07000
C371        C  0.52902207  0.53144520  0.75675484     0.13900
C372        C  0.54035430  0.52756611  0.69872320    -0.20500
C373        C  0.51594385  0.49229465  0.67135593    -0.07000
C374        C  0.47641935  0.46291623  0.70238336     0.13900
C375        C  0.44619843  0.42698538  0.67499925    -0.23800
H376        H  0.43507724  0.44373713  0.78351261     0.15200
H377        H  0.57034148  0.55033148  0.67477030     0.15200
C378        C  0.55966574  0.56694318  0.78392943    -0.23800
H379        H  0.41444429  0.40976555  0.70515756     0.05400
H380        H  0.47328681  0.39412671  0.65525538     0.08600
H381        H  0.42723544  0.44913775  0.64338396     0.08600
H382        H  0.58208823  0.54385633  0.81221227     0.08600
H383        H  0.53196443  0.59739845  0.80743608     0.08600
H384        H  0.58864418  0.58715560  0.75318367     0.05400
C385        C  0.47063096  0.46658367  0.29889308    -0.20400
C386        C  0.49622755  0.50105275  0.32615981    -0.07000
C387        C  0.53621772  0.52963648  0.29486634     0.13900
C388        C  0.54642292  0.52632979  0.23710698    -0.20500
C389        C  0.51792454  0.49511548  0.20933153    -0.07000
C390        C  0.48075546  0.46336466  0.24087595     0.13900
C391        C  0.44952060  0.42829004  0.21384980    -0.23800
H392        H  0.44061815  0.44392824  0.32296904     0.15200
H393        H  0.57588336  0.54972931  0.21322445     0.15200
C394        C  0.56881991  0.56319687  0.32205507    -0.23800
H395        H  0.42111993  0.40758527  0.24474874     0.05400
H396        H  0.47691476  0.39821954  0.18936404     0.08600
H397        H  0.42644244  0.45178056  0.18643863     0.08600
H398        H  0.58779393  0.53935848  0.35257770     0.08600
H399        H  0.54342308  0.59649662  0.34305503     0.08600
H400        H  0.60077649  0.57971518  0.29155103     0.05400
C401        C  0.01550667  0.22919476  0.44379897    -0.20400
C402        C  0.98780146  0.19802260  0.48533316    -0.07000
C403        C  0.95079029  0.22292817  0.52862240     0.13900
C404        C  0.94616944  0.27772594  0.53189245    -0.20500
C405        C  0.97511222  0.30883556  0.49141061    -0.07000
C406        C  0.00916750  0.28423691  0.44597054     0.13900
C407        C  0.04105450  0.31579037  0.40126950    -0.23800
H408        H  0.04326096  0.21027425  0.41025198     0.15200
H409        H  0.91981257  0.29638442  0.56663834     0.15200
C410        C  0.91545371  0.19302367  0.57208829    -0.23800
H411        H  0.06665317  0.29038423  0.36962155     0.05400
H412        H  0.06703095  0.33981997  0.41944125     0.08600
H413        H  0.01392236  0.34181214  0.38022965     0.08600
H414        H  0.92529880  0.19927518  0.61320068     0.08600
H415        H  0.91901837  0.15045653  0.56460226     0.08600
H416        H  0.87335601  0.20741050  0.57270572     0.05400
C417        C  0.06647025  0.78015831  0.45373978    -0.20400
C418        C  0.04484274  0.80705217  0.50279016    -0.07000
C419        C  0.04308337  0.77584138  0.55215291     0.13900
C420        C  0.04041828  0.72130310  0.54952412    -0.20500
C421        C  0.04830169  0.69612530  0.49866979    -0.07000
C422        C  0.06625959  0.72568229  0.45034762     0.13900
C423        C  0.08541733  0.70058273  0.39490709    -0.23800
H424        H  0.08151433  0.80201529  0.41678813     0.15200
H425        H  0.03364403  0.69827994  0.58741520     0.15200
C426        C  0.05471701  0.79516826  0.60530611    -0.23800
H427        H  0.10313034  0.72891807  0.36335658     0.05400
H428        H  0.05187421  0.68559654  0.37954108     0.08600
H429        H  0.11628629  0.66817867  0.39833842     0.08600
H430        H  0.01925783  0.79430742  0.63862694     0.08600
H431        H  0.06983965  0.83436862  0.60065608     0.08600
H432        H  0.08709834  0.76897976  0.61828807     0.05400
C433        C  0.77500207  0.56660176  0.48329385    -0.20400
C434        C  0.81112553  0.52395433  0.46356408    -0.07000
C435        C  0.79192433  0.47773918  0.44809030     0.13900
C436        C  0.73735889  0.47386654  0.45776881    -0.20500
C437        C  0.70178894  0.51483581  0.48161190    -0.07000
C438        C  0.72026492  0.56264971  0.49235016     0.13900
C439        C  0.68285292  0.60837082  0.51578119    -0.23800
H440        H  0.78952368  0.60242681  0.49419498     0.15200
H441        H  0.72220936  0.43799440  0.44777827     0.15200
C442        C  0.82791946  0.43232503  0.42130890    -0.23800
H443        H  0.70454611  0.64199543  0.52365579     0.05400
H444        H  0.65819365  0.59669645  0.55543244     0.08600
H445        H  0.65670434  0.62180638  0.48616265     0.08600
H446        H  0.85045980  0.41220126  0.45124407     0.08600
H447        H  0.85568726  0.44640252  0.38491471     0.08600
H448        H  0.80509837  0.40260528  0.40675102     0.05400
C449        C  0.22691600  0.43350227  0.52325941    -0.20400
C450        C  0.19480667  0.48008665  0.53809299    -0.07000
C451        C  0.21887639  0.52672892  0.54305033     0.13900
C452        C  0.27395863  0.52611341  0.52878310    -0.20500
C453        C  0.30523772  0.48030771  0.51082809    -0.07000
C454        C  0.28201945  0.43302327  0.50976232     0.13900
C455        C  0.31479980  0.38273975  0.49212772    -0.23800
H456        H  0.20889803  0.39752011  0.51974804     0.15200
H457        H  0.29290059  0.56182299  0.53116641     0.15200
C458        C  0.18760518  0.57712725  0.56350117    -0.23800
H459        H  0.28963954  0.34998433  0.49108228     0.05400
H460        H  0.34162737  0.37163309  0.52172637     0.08600
H461        H  0.33867291  0.38771928  0.45017610     0.08600
H462        H  0.16097789  0.56997365  0.60344800     0.08600
H463        H  0.16406552  0.59376389  0.53271787     0.08600
H464        H  0.21400178  0.60723954  0.57032991     0.05400
C465        C  0.93340137  0.23046575  0.99153286    -0.20400
C466        C  0.97436878  0.19517580  0.00440699    -0.07000
C467        C  0.01839722  0.21437884  0.02143001     0.13900
C468        C  0.02063719  0.26837943  0.02450555    -0.20500
C469        C  0.98031672  0.30403927  0.01070580    -0.07000
C470        C  0.93561727  0.28480463  0.99473980     0.13900
C471        C  0.88926768  0.32095106  0.98340856    -0.23800
H472        H  0.89932581  0.21528934  0.97952576     0.15200
H473        H  0.05487955  0.28276423  0.03703396     0.15200
C474        C  0.06383821  0.17913139  0.03650658    -0.23800
H475        H  0.85647454  0.29894296  0.97499901     0.05400
H476        H  0.90176305  0.34610442  0.94673592     0.08600
H477        H  0.87350488  0.34576467  0.01982555     0.08600
H478        H  0.10153400  0.18870680  0.00967172     0.08600
H479        H  0.05973086  0.13706481  0.03165665     0.08600
H480        H  0.06653230  0.18543647  0.08017835     0.05400
C481        C  0.04670178  0.78443572  0.98755782    -0.20400
C482        C  0.99562578  0.81057683  0.99384232    -0.07000
C483        C  0.95077622  0.78156980  0.00343417     0.13900
C484        C  0.95798290  0.72688954  0.00475689    -0.20500
C485        C  0.00892113  0.70057484  0.99808832    -0.07000
C486        C  0.05385843  0.72951075  0.98993245     0.13900
C487        C  0.10905216  0.70250420  0.98214659    -0.23800
H488        H  0.08089376  0.80716403  0.98107922     0.15200
H489        H  0.92362508  0.70437485  0.01060377     0.15200
C490        C  0.89540894  0.80840231  0.01223083    -0.23800
H491        H  0.13973923  0.73098720  0.97537750     0.05400
H492        H  0.11591737  0.67676552  0.94575931     0.08600
H493        H  0.11390558  0.67852848  0.01941855     0.08600
H494        H  0.88978204  0.83258051  0.97532521     0.08600
H495        H  0.88905370  0.83392231  0.04875536     0.08600
H496        H  0.86479230  0.77984961  0.01944785     0.05400
C497        C  0.71262937  0.47343704  0.05091698    -0.20400
C498        C  0.68440921  0.49186488  0.00944123    -0.07000
C499        C  0.71346795  0.51065762  0.95931705     0.13900
C500        C  0.76911738  0.51245235  0.95257743    -0.20500
C501        C  0.79723728  0.49573656  0.99468811    -0.07000
C502        C  0.76843656  0.47498570  0.04412104     0.13900
C503        C  0.79598281  0.45759466  0.09119769    -0.23800
H504        H  0.69053901  0.46028380  0.08997637     0.15200
H505        H  0.79067399  0.52846348  0.91465125     0.15200
C506        C  0.68530288  0.53027187  0.91336338    -0.21400
H507        H  0.76769810  0.44403439  0.12745506     0.05400
H508        H  0.81555974  0.49061467  0.10429913     0.08600
H509        H  0.82631496  0.42476453  0.07802751     0.08600
H510        H  0.65659619  0.56414704  0.92747279     0.08600
H511        H  0.66358510  0.49861474  0.90076537     0.08600
H512        H  0.71351866  0.54295345  0.87660449     0.05400
C513        C  0.23348757  0.54276000  0.98503144    -0.20400
C514        C  0.20848739  0.50287461  0.01821555    -0.07000
C515        C  0.24148941  0.46703590  0.04512370     0.13900
C516        C  0.29716678  0.46812571  0.03301840    -0.20500
C517        C  0.32237037  0.50510373  0.99654975    -0.07000
C518        C  0.28971835  0.54456462  0.97445097     0.13900
C519        C  0.31418039  0.58739310  0.93809519    -0.23800
H520        H  0.20924068  0.57148998  0.96545793     0.15200
H521        H  0.32166778  0.43866413  0.05147337     0.15200
C522        C  0.21894865  0.42744756  0.08767980    -0.23800
H523        H  0.28354285  0.61483676  0.92367959     0.05400
H524        H  0.34119481  0.57033472  0.90137413     0.08600
H525        H  0.33705893  0.61006324  0.96156544     0.08600
H526        H  0.20228188  0.39624936  0.06793978     0.08600
H527        H  0.18785751  0.44718777  0.11953894     0.08600
H528        H  0.24986497  0.40786103  0.10914526     0.05400
C529        C  0.01167945  0.53898852  0.72016453    -0.20400
C530        C  0.99871164  0.49304228  0.69795550    -0.07000
C531        C  0.97861286  0.45346794  0.73631905     0.13900
C532        C  0.97238331  0.46095163  0.79401712    -0.20500
C533        C  0.98516513  0.50689197  0.81602294    -0.07000
C534        C  0.00548963  0.54633663  0.77792292     0.13900
C535        C  0.02295030  0.59576238  0.79761837    -0.23800
H536        H  0.02818252  0.56908891  0.69201508     0.15200
H537        H  0.95630057  0.43081463  0.82239258     0.15200
C538        C  0.96210881  0.40325365  0.71737153    -0.23800
H539        H  0.04179350  0.62017235  0.76270080     0.05400
H540        H  0.05243970  0.58582416  0.82476581     0.08600
H541        H  0.98834465  0.61980705  0.82048395     0.08600
H542        H  0.99730199  0.37902893  0.69586305     0.08600
H543        H  0.93312779  0.41206855  0.68946078     0.08600
H544        H  0.94293135  0.37934100  0.75254668     0.05400
C545        C  0.99044385  0.46907116  0.28686603    -0.20400
C546        C  0.00482731  0.51468299  0.30828285    -0.07000
C547        C  0.02650513  0.55313420  0.26966970     0.13900
C548        C  0.03287807  0.54494338  0.21204647    -0.20500
C549        C  0.01850960  0.49926800  0.19065712    -0.07000
C550        C  0.99666480  0.46094829  0.22932457     0.13900
C551        C  0.97773797  0.41188092  0.21053796    -0.23800
H552        H  0.97281437  0.43987706  0.31552802     0.15200
H553        H  0.05026434  0.57421579  0.18334639     0.15200
C554        C  0.04471722  0.60250086  0.28861465    -0.23800
H555        H  0.95767045  0.38868053  0.24583983     0.05400
H556        H  0.01181574  0.38648836  0.18866083     0.08600
H557        H  0.94887684  0.42220963  0.18278786     0.08600
H558        H  0.07345510  0.59257188  0.31658585     0.08600
H559        H  0.01028257  0.62756967  0.31031997     0.08600
H560        H  0.06466614  0.62587575  0.25340425     0.05400
loop_ 
_geom_bond_atom_site_label_1 
_geom_bond_atom_site_label_2 
_geom_bond_distance 
_geom_bond_site_symmetry_2 
_ccdc_geom_bond_type 
O1           Ni7   1.912       .  S
O1           C22   1.268   1_655  A
O2          Ni25   1.907       .  S
O2           C11   1.269   1_556  A
O3           Ni7   1.908   1_554  S
O3          Ni25   1.898   1_554  S
O3          Ni19   1.951   1_655  S
O3           H26   0.966       .  S
C4           O21   1.291       .  A
C4           O13   1.278       .  A
C4          C514   1.524       .  S
O5          Ni24   1.930       .  S
O5           C11   1.273   1_455  A
O6          Ni24   1.919       .  S
O6            C8   1.269       .  A
Ni7          O10   1.940       .  S
Ni7          O12   1.915       .  S
C8           O18   1.284       .  A
C8          C549   1.521       .  S
O9          Ni25   1.954       .  S
O9           C15   1.284       .  A
O10          C15   1.280       .  A
C11         C469   1.482       .  S
O12          C14   1.267       .  A
O13         Ni24   1.930       .  S
C14          O20   1.284       .  A
C14         C533   1.520       .  S
C15         C501   1.507       .  S
H16          O17   0.967       .  S
O17         Ni25   1.935   1_455  S
O17         Ni19   1.908   1_556  S
O17         Ni24   1.903   1_556  S
O18         Ni19   1.975       .  S
Ni19         O23   1.925       .  S
Ni19         O21   1.973       .  S
O20         Ni25   1.976       .  S
C22          O23   1.274   1_556  A
C22         C485   1.472       .  S
O27         Ni33   1.919   1_455  S
O27          C48   1.269       .  A
O28         Ni51   1.929       .  S
O28          C37   1.273       .  A
O29         Ni33   1.899       .  S
O29         Ni51   1.905       .  S
O29         Ni45   1.907   1_655  S
O29          H52   0.967       .  S
C30          O47   1.276       .  A
C30          O39   1.279       .  A
C30         C450   1.470       .  S
O31         Ni50   1.921   1_655  S
O31          C37   1.270       .  A
O32         Ni50   1.913       .  S
O32          C34   1.268       .  A
Ni33         O36   1.910       .  S
Ni33         O38   1.918       .  S
C34          O44   1.286       .  A
C34         C530   1.526   1_455  S
O35         Ni51   1.901       .  S
O35          C41   1.277       .  A
O36          C41   1.279       .  A
C37         C405   1.487       .  S
O38          C40   1.268       .  A
O39         Ni50   1.910       .  S
C40          O46   1.282       .  A
C40         C546   1.520   1_655  S
C41         C434   1.469       .  S
H42          O43   0.966       .  S
O43         Ni51   1.902   1_455  S
O43         Ni45   1.903       .  S
O43         Ni50   1.898       .  S
O44         Ni45   1.979       .  S
Ni45         O49   1.935       .  S
Ni45         O47   1.899       .  S
O46         Ni51   1.968       .  S
C48          O49   1.276       .  A
C48         C421   1.494       .  S
O53         Ni59   1.922   1_554  S
O53          C74   1.269       .  A
O54         Ni77   1.933       .  S
O54          C63   1.275       .  A
O55         Ni59   1.897       .  S
O55         Ni77   1.910       .  S
O55         Ni71   1.921   1_556  S
O55          H78   0.965       .  S
C56          O73   1.284       .  A
C56          O65   1.280       .  A
C56         C389   1.490       .  S
O57         Ni76   1.915   1_556  S
O57          C63   1.268       .  A
O58         Ni76   1.910       .  S
O58          C60   1.266       .  A
Ni59         O62   1.921       .  S
Ni59         O64   1.911       .  S
C60          O70   1.281       .  A
C60         C498   1.501       .  S
O61         Ni77   1.940       .  S
O61          C67   1.284       .  A
O62          C67   1.280       .  A
C63         C354   1.494       .  S
O64          C66   1.269       .  A
O65         Ni76   1.917       .  S
C66          O72   1.281       .  A
C66         C517   1.512       .  S
C67         C370   1.495       .  S
H68          O69   0.968       .  S
O69         Ni77   1.926   1_554  S
O69         Ni71   1.906       .  S
O69         Ni76   1.897       .  S
O70         Ni71   1.969       .  S
Ni71         O75   1.933       .  S
Ni71         O73   1.940       .  S
O72         Ni77   1.973       .  S
C74          O75   1.275       .  A
C74         C338   1.485       .  S
O79         Ni85   1.915       .  S
O79         C100   1.268       .  A
O80        Ni103   1.906       .  S
O80          C89   1.266       .  A
O81         Ni85   1.917       .  S
O81        Ni103   1.917       .  S
O81         Ni97   1.907       .  S
O81         H104   0.967       .  S
C82          O99   1.264       .  A
C82          O91   1.272       .  A
C82         C437   1.455       .  S
O83        Ni102   1.915       .  S
O83          C89   1.265       .  A
O84        Ni102   1.899       .  S
O84          C86   1.265       .  A
Ni85         O88   1.915       .  S
Ni85         O90   1.911       .  S
C86          O96   1.273       .  A
C86         C373   1.485       .  S
O87        Ni103   1.884       .  S
O87          C93   1.261       .  A
O88          C93   1.267       .  A
C89         C309   1.480       .  S
O90          C92   1.272       .  A
O91        Ni102   1.914       .  S
C92          O98   1.278       .  A
C92         C386   1.487       .  S
C93         C453   1.452       .  S
H94          O95   0.967       .  S
O95        Ni103   1.891       .  S
O95         Ni97   1.916       .  S
O95        Ni102   1.914       .  S
O96         Ni97   1.947       .  S
Ni97        O101   1.905       .  S
Ni97         O99   1.883       .  S
O98        Ni103   1.954       .  S
C100        O101   1.266       .  A
C100        C322   1.472       .  S
N105        C110   1.353       .  A
N105        C109   1.349       .  A
N105        H137   1.038       .  S
N106        C113   1.348       .  A
N106        C114   1.350       .  A
N107        C112   1.350       .  A
N107        C111   1.354       .  A
N107        H138   1.038       .  S
N108        C115   1.352       .  A
N108        C116   1.348       .  A
C109        C117   1.389       .  A
C109        C125   1.412       .  A
C110        C126   1.409   1_554  A
C110        C118   1.385       .  A
C111        C119   1.387   1_655  A
C111        C128   1.414   1_556  A
C112        C127   1.412       .  A
C112        C120   1.387   1_655  A
C113        C125   1.410   1_545  A
C113        C121   1.387       .  A
C114        C128   1.410       .  A
C114        C122   1.386       .  A
C115        C123   1.384       .  A
C115        C126   1.409       .  A
C116        C124   1.388       .  A
C116        C127   1.412   1_565  A
C117        C118   1.370       .  A
C117        H129   1.082       .  S
C118        H130   1.082   1_655  S
C119        C120   1.376       .  A
C119        H131   1.082       .  S
C120        H132   1.083       .  S
C121        C122   1.371       .  A
C121        H133   1.082       .  S
C122        H134   1.082       .  S
C123        C124   1.373       .  A
C123        H135   1.082       .  S
C124        H136   1.083       .  S
C125        C290   1.473       .  S
C126        C482   1.486       .  S
C127        C274   1.477   1_655  S
C128        C466   1.487       .  S
N139        C144   1.354       .  A
N139        C143   1.350       .  A
N139        H171   1.045       .  S
N140        C147   1.342       .  A
N140        C148   1.348       .  A
N141        C146   1.346       .  A
N141        C145   1.360       .  A
N141        H172   1.038   1_655  S
N142        C149   1.361       .  A
N142        C150   1.352   1_455  A
C143        C151   1.387   1_455  A
C143        C159   1.408   1_565  A
C144        C160   1.407       .  A
C144        C152   1.383   1_455  A
C145        C153   1.385       .  A
C145        C162   1.418       .  A
C146        C161   1.414   1_545  A
C146        C154   1.389       .  A
C147        C159   1.403       .  A
C147        C155   1.387       .  A
C148        C162   1.412   1_455  A
C148        C156   1.386       .  A
C149        C157   1.389       .  A
C149        C160   1.429       .  A
C150        C158   1.385       .  A
C150        C161   1.417       .  A
C151        C152   1.376       .  A
C151        H163   1.082       .  S
C152        H164   1.082       .  S
C153        C154   1.374       .  A
C153        H165   1.082       .  S
C154        H166   1.082       .  S
C155        C156   1.377       .  A
C155        H167   1.082       .  S
C156        H168   1.082       .  S
C157        C158   1.367   1_455  A
C157        H169   1.080   1_455  S
C158        H170   1.082       .  S
C159        C277   1.472       .  S
C160        C418   1.542       .  S
C161        C293   1.474       .  S
C162        C402   1.502       .  S
N173        C178   1.347       .  A
N173        C177   1.356       .  A
N173        H205   1.037       .  S
N174        C181   1.353       .  A
N174        C182   1.346       .  A
N175        C180   1.357       .  A
N175        C179   1.347       .  A
N175        H206   1.038       .  S
N176        C183   1.346       .  A
N176        C184   1.352       .  A
C177        C185   1.385       .  A
C177        C193   1.412       .  A
C178        C194   1.413   1_565  A
C178        C186   1.391       .  A
C179        C187   1.391       .  A
C179        C196   1.415   1_545  A
C180        C195   1.412       .  A
C180        C188   1.383       .  A
C181        C193   1.411   1_554  A
C181        C189   1.384       .  A
C182        C196   1.411       .  A
C182        C190   1.388       .  A
C183        C191   1.387       .  A
C183        C194   1.408       .  A
C184        C192   1.385       .  A
C184        C195   1.410   1_556  A
C185        C186   1.371       .  A
C185        H197   1.082       .  S
C186        H198   1.082       .  S
C187        C188   1.374       .  A
C187        H199   1.082       .  S
C188        H200   1.082       .  S
C189        C190   1.375       .  A
C189        H201   1.082       .  S
C190        H202   1.082       .  S
C191        C192   1.374       .  A
C191        H203   1.082       .  S
C192        H204   1.082       .  S
C193        C357   1.494       .  S
C194        C245   1.465       .  S
C195        C341   1.497       .  S
C196        C261   1.468       .  S
N207        C212   1.352       .  A
N207        C211   1.348       .  A
N207        H239   1.039       .  S
N208        C215   1.346       .  A
N208        C216   1.349       .  A
N209        C214   1.347       .  A
N209        C213   1.351       .  A
N209        H240   1.039       .  S
N210        C217   1.348       .  A
N210        C218   1.345       .  A
C211        C219   1.389       .  A
C211        C227   1.410   1_545  A
C212        C228   1.408       .  A
C212        C220   1.385       .  A
C213        C221   1.385       .  A
C213        C230   1.408       .  A
C214        C229   1.410   1_565  A
C214        C222   1.388       .  A
C215        C227   1.404       .  A
C215        C223   1.386       .  A
C216        C230   1.409       .  A
C216        C224   1.387       .  A
C217        C225   1.385       .  A
C217        C228   1.404       .  A
C218        C226   1.388       .  A
C218        C229   1.405       .  A
C219        C220   1.375       .  A
C219        H231   1.083       .  S
C220        H232   1.082       .  S
C221        C222   1.378       .  A
C221        H233   1.082       .  S
C222        H234   1.082       .  S
C223        C224   1.369       .  A
C223        H235   1.083       .  S
C224        H236   1.082       .  S
C225        C226   1.367       .  A
C225        H237   1.082       .  S
C226        H238   1.082       .  S
C227        C258   1.468       .  S
C228        C306   1.478       .  S
C229        C242   1.465       .  S
C230        C325   1.481       .  S
C241        C242   1.398       .  A
C241        C246   1.392       .  A
C241        H248   1.084       .  S
C242        C243   1.409       .  A
C243        C244   1.398       .  A
C243        C250   1.506       .  S
C244        C245   1.401       .  A
C244        H249   1.084       .  S
C245        C246   1.408       .  A
C246        C247   1.507       .  S
C247        H251   1.111       .  S
C247        H252   1.111       .  S
C247        H253   1.110   1_545  S
C250        H254   1.110       .  S
C250        H255   1.110   1_545  S
C250        H256   1.111       .  S
C257        C258   1.401       .  A
C257        C262   1.396       .  A
C257        H264   1.084       .  S
C258        C259   1.407       .  A
C259        C260   1.395       .  A
C259        C266   1.506   1_565  S
C260        C261   1.400       .  A
C260        H265   1.084       .  S
C261        C262   1.408       .  A
C262        C263   1.506       .  S
C263        H267   1.111       .  S
C263        H268   1.110       .  S
C263        H269   1.110       .  S
C266        H270   1.110       .  S
C266        H271   1.110   1_545  S
C266        H272   1.111       .  S
C273        C274   1.400   1_655  A
C273        C278   1.397       .  A
C273        H280   1.084       .  S
C274        C275   1.412   1_545  A
C275        C276   1.399       .  A
C275        C282   1.507       .  S
C276        C277   1.400   1_565  A
C276        H281   1.084       .  S
C277        C278   1.410   1_455  A
C278        C279   1.507       .  S
C279        H283   1.111       .  S
C279        H284   1.110       .  S
C279        H285   1.110       .  S
C282        H286   1.109       .  S
C282        H287   1.110       .  S
C282        H288   1.111       .  S
C289        C290   1.401       .  A
C289        C294   1.401       .  A
C289        H296   1.084       .  S
C290        C291   1.410   1_665  A
C291        C292   1.393       .  A
C291        C298   1.508       .  S
C292        C293   1.398   1_445  A
C292        H297   1.084       .  S
C293        C294   1.410       .  A
C294        C295   1.505       .  S
C295        H299   1.111       .  S
C295        H300   1.110   1_565  S
C295        H301   1.110       .  S
C298        H302   1.110       .  S
C298        H303   1.110   1_545  S
C298        H304   1.111       .  S
C305        C306   1.397       .  A
C305        C310   1.396       .  A
C305        H312   1.085       .  S
C306        C307   1.410       .  A
C307        C308   1.403       .  A
C307        C314   1.506       .  S
C308        C309   1.406       .  A
C308        H313   1.083       .  S
C309        C310   1.421       .  A
C310        C311   1.511       .  S
C311        H315   1.111       .  S
C311        H316   1.110       .  S
C311        H317   1.110       .  S
C314        H318   1.111       .  S
C314        H319   1.109       .  S
C314        H320   1.110       .  S
C321        C322   1.402       .  A
C321        C326   1.403       .  A
C321        H328   1.084       .  S
C322        C323   1.415       .  A
C323        C324   1.400       .  A
C323        C330   1.509       .  S
C324        C325   1.399       .  A
C324        H329   1.084       .  S
C325        C326   1.414       .  A
C326        C327   1.506       .  S
C327        H331   1.110       .  S
C327        H332   1.109       .  S
C327        H333   1.110       .  S
C330        H334   1.110       .  S
C330        H335   1.109       .  S
C330        H336   1.111       .  S
C337        C338   1.404       .  A
C337        C342   1.409       .  A
C337        H344   1.084   1_554  S
C338        C339   1.417       .  A
C339        C340   1.408       .  A
C339        C346   1.508       .  S
C340        C341   1.403       .  A
C340        H345   1.084       .  S
C341        C342   1.414       .  A
C342        C343   1.506   1_554  S
C343        H347   1.111       .  S
C343        H348   1.109       .  S
C343        H349   1.110   1_556  S
C346        H350   1.109       .  S
C346        H351   1.111       .  S
C346        H352   1.111       .  S
C353        C354   1.408       .  A
C353        C358   1.402       .  A
C353        H360   1.085       .  S
C354        C355   1.418       .  A
C355        C356   1.411       .  A
C355        C362   1.506       .  S
C356        C357   1.405       .  A
C356        H361   1.084       .  S
C357        C358   1.413       .  A
C358        C359   1.509       .  S
C359        H363   1.110       .  S
C359        H364   1.108       .  S
C359        H365   1.111       .  S
C362        H366   1.110   1_556  S
C362        H367   1.110       .  S
C362        H368   1.111       .  S
C369        C370   1.407       .  A
C369        C374   1.404       .  A
C369        H376   1.084       .  S
C370        C371   1.420       .  A
C371        C372   1.412       .  A
C371        C378   1.507       .  S
C372        C373   1.404       .  A
C372        H377   1.084       .  S
C373        C374   1.414       .  A
C374        C375   1.510       .  S
C375        H379   1.111       .  S
C375        H380   1.109       .  S
C375        H381   1.111       .  S
C378        H382   1.111       .  S
C378        H383   1.110       .  S
C378        H384   1.111       .  S
C385        C386   1.407       .  A
C385        C390   1.410       .  A
C385        H392   1.084       .  S
C386        C387   1.413       .  A
C387        C388   1.404       .  A
C387        C394   1.508       .  S
C388        C389   1.407       .  A
C388        H393   1.084       .  S
C389        C390   1.417       .  A
C390        C391   1.507       .  S
C391        H395   1.111       .  S
C391        H396   1.110       .  S
C391        H397   1.110       .  S
C394        H398   1.111       .  S
C394        H399   1.109       .  S
C394        H400   1.111       .  S
C401        C402   1.406   1_455  A
C401        C406   1.410       .  A
C401        H408   1.084       .  S
C402        C403   1.419       .  A
C403        C404   1.406       .  A
C403        C410   1.508       .  S
C404        C405   1.403       .  A
C404        H409   1.085       .  S
C405        C406   1.416   1_655  A
C406        C407   1.507       .  S
C407        H411   1.111       .  S
C407        H412   1.111       .  S
C407        H413   1.110       .  S
C410        H414   1.110       .  S
C410        H415   1.108       .  S
C410        H416   1.110       .  S
C417        C418   1.409       .  A
C417        C422   1.405       .  A
C417        H424   1.082       .  S
C418        C419   1.432       .  A
C419        C420   1.413       .  A
C419        C426   1.507       .  S
C420        C421   1.403       .  A
C420        H425   1.084       .  S
C421        C422   1.418       .  A
C422        C423   1.510       .  S
C423        H427   1.111       .  S
C423        H428   1.108       .  S
C423        H429   1.110       .  S
C426        H430   1.110       .  S
C426        H431   1.107       .  S
C426        H432   1.111       .  S
C433        C434   1.409       .  A
C433        C438   1.397       .  A
C433        H440   1.084       .  S
C434        C435   1.416       .  A
C435        C436   1.392       .  A
C435        C442   1.511       .  S
C436        C437   1.399       .  A
C436        H441   1.085       .  S
C437        C438   1.406       .  A
C438        C439   1.508       .  S
C439        H443   1.111       .  S
C439        H444   1.110       .  S
C439        H445   1.110       .  S
C442        H446   1.109       .  S
C442        H447   1.111       .  S
C442        H448   1.111       .  S
C449        C450   1.410       .  A
C449        C454   1.394       .  A
C449        H456   1.084       .  S
C450        C451   1.416       .  A
C451        C452   1.394       .  A
C451        C458   1.511       .  S
C452        C453   1.400       .  A
C452        H457   1.085       .  S
C453        C454   1.404       .  A
C454        C455   1.508       .  S
C455        H459   1.111       .  S
C455        H460   1.109       .  S
C455        H461   1.111       .  S
C458        H462   1.111       .  S
C458        H463   1.109       .  S
C458        H464   1.111       .  S
C465        C466   1.403   1_556  A
C465        C470   1.408       .  A
C465        H472   1.084       .  S
C466        C467   1.413   1_655  A
C467        C468   1.399       .  A
C467        C474   1.509       .  S
C468        C469   1.404   1_455  A
C468        H473   1.085       .  S
C469        C470   1.417   1_554  A
C470        C471   1.507       .  S
C471        H475   1.111       .  S
C471        H476   1.109       .  S
C471        H477   1.110   1_556  S
C474        H478   1.110       .  S
C474        H479   1.108       .  S
C474        H480   1.111       .  S
C481        C482   1.405   1_455  A
C481        C486   1.407       .  A
C481        H488   1.084       .  S
C482        C483   1.409   1_556  A
C483        C484   1.400       .  A
C483        C490   1.507       .  S
C484        C485   1.404   1_654  A
C484        H489   1.085       .  S
C485        C486   1.410       .  A
C486        C487   1.505       .  S
C487        H491   1.111       .  S
C487        H492   1.110       .  S
C487        H493   1.110   1_556  S
C490        H494   1.110   1_554  S
C490        H495   1.110       .  S
C490        H496   1.111       .  S
C497        C498   1.408       .  A
C497        C502   1.419       .  A
C497        H504   1.084       .  S
C498        C499   1.415   1_554  A
C499        C500   1.416       .  A
C499        C506   1.506       .  S
C500        C501   1.408       .  A
C500        H505   1.084       .  S
C501        C502   1.419   1_556  A
C502        C503   1.506       .  S
C503        H507   1.111       .  S
C503        H508   1.111       .  S
C503        H509   1.110       .  S
C506        H510   1.110       .  S
C506        H511   1.111       .  S
C506        H512   1.111       .  S
C513        C514   1.415   1_556  A
C513        C518   1.427       .  A
C513        H520   1.083       .  S
C514        C515   1.428       .  A
C515        C516   1.411       .  A
C515        C522   1.511       .  S
C516        C517   1.403   1_554  A
C516        H521   1.085       .  S
C517        C518   1.419       .  A
C518        C519   1.504       .  S
C519        H523   1.111       .  S
C519        H524   1.110       .  S
C519        H525   1.110       .  S
C522        H526   1.109       .  S
C522        H527   1.111       .  S
C522        H528   1.111       .  S
C529        C530   1.409   1_455  A
C529        C534   1.421       .  A
C529        H536   1.084       .  S
C530        C531   1.430       .  A
C531        C532   1.420       .  A
C531        C538   1.508       .  S
C532        C533   1.405       .  A
C532        H537   1.084       .  S
C533        C534   1.426   1_655  A
C534        C535   1.508       .  S
C535        H539   1.111       .  S
C535        H540   1.111       .  S
C535        H541   1.109   1_455  S
C538        H542   1.109       .  S
C538        H543   1.110       .  S
C538        H544   1.111       .  S
C545        C546   1.407   1_655  A
C545        C550   1.419       .  A
C545        H552   1.084       .  S
C546        C547   1.426       .  A
C547        C548   1.421       .  A
C547        C554   1.508       .  S
C548        C549   1.408       .  A
C548        H553   1.084       .  S
C549        C550   1.426   1_455  A
C550        C551   1.508       .  S
C551        H555   1.111       .  S
C551        H556   1.109   1_655  S
C551        H557   1.111       .  S
C554        H558   1.111       .  S
C554        H559   1.109       .  S
C554        H560   1.111       .  S
