geometry optimzed in LAMMPS
_audit_creation_date              2020-11-30 
_audit_creation_method            'lammps2cif' 
_symmetry_space_group_name_H-M    'P1' 
_symmetry_Int_Tables_number       1 
_symmetry_cell_setting            triclinic 
loop_ 
_symmetry_equiv_pos_as_xyz 
  x,y,z 
_cell_length_a                    21.12376496 
_cell_length_b                    21.869943651129997 
_cell_length_c                    42.69892390697581 
_cell_angle_alpha                 88.99609708673752 
_cell_angle_beta                  89.41507632702366 
_cell_angle_gamma                 88.84451438396121 
loop_ 
_atom_site_label 
_atom_site_type_symbol 
_atom_site_fract_x 
_atom_site_fract_y 
_atom_site_fract_z 
_atom_site_charge 
O1          O  0.43227170  0.43266822  0.20296708    -0.80200
O2          O  0.54913027  0.65940781  0.22491310    -0.80200
O3          O  0.37233622  0.57614097  0.23181127    -0.80200
O4          O  0.63198632  0.45325680  0.23610169    -0.80100
O5          O  0.45866642  0.58465164  0.20246372    -0.80300
O6          O  0.55665789  0.43991461  0.20363819    -0.80200
O7          O  0.59959550  0.57134176  0.21713191    -0.80200
O8          O  0.35473097  0.45193746  0.23608597    -0.80200
C9          C  0.37529440  0.42801738  0.21097839     1.09500
C10         C  0.59317062  0.62954848  0.21150846     1.09400
C11         C  0.39993753  0.59465087  0.20665551     1.09600
C12         C  0.61309447  0.43079482  0.21086518     1.09400
O13         O  0.55862420  0.38521396  0.26802861    -0.80200
O14         O  0.44678993  0.64167342  0.26197033    -0.80200
O15         O  0.41127509  0.44868531  0.29699270    -0.80200
O16         O  0.65425120  0.55124749  0.27303122    -0.80200
O17         O  0.56387962  0.60158428  0.28098625    -0.80200
O18         O  0.43008311  0.37464608  0.26411384    -0.80200
O19         O  0.57030897  0.46831215  0.29572568    -0.80100
O20         O  0.42561438  0.56971554  0.29542635    -0.80200
Co21       Co  0.49485751  0.41305652  0.23486014     1.51500
Co22       Co  0.51139414  0.58734420  0.24036422     1.51700
Co23       Co  0.39639273  0.51172880  0.26472867     1.51600
Co24       Co  0.57878574  0.51898853  0.25750061     1.51500
O25         O  0.48694946  0.50028767  0.24939966    -1.42100
C26         C  0.57639042  0.41102838  0.29308884     1.09500
C27         C  0.42159432  0.62492870  0.28753061     1.09500
C28         C  0.40545496  0.39369482  0.28953099     1.09500
C29         C  0.62330153  0.59277515  0.28718751     1.09500
O30         O  0.89326005  0.44380828  0.03806886    -0.80200
O31         O  0.11747299  0.56336171  0.02906014    -0.80200
O32         O  0.05141928  0.39564450  0.03876628    -0.80200
O33         O  0.97975585  0.58823485  0.04597359    -0.80100
O34         O  0.13864406  0.44241767  0.03012081    -0.80300
O35         O  0.88479364  0.56767416  0.02908133    -0.80200
O36         O  0.06726003  0.64938581  0.01300505    -0.80200
O37         O  0.94209500  0.36414737  0.01635653    -0.80200
C38         C  0.90271154  0.38666566  0.03634671     1.09500
C39         C  0.10901947  0.62249953  0.03007882     1.09400
C40         C  0.10919552  0.40230621  0.04506351     1.09600
C41         C  0.92004645  0.59343762  0.04823356     1.09400
O42         O  0.90037914  0.54877627  0.46406666    -0.80200
O43         O  0.11610793  0.42299604  0.46986297    -0.80200
O44         O  0.97580925  0.41144466  0.45303736    -0.80200
O45         O  0.05550883  0.58500799  0.45967060    -0.80200
O46         O  0.14311221  0.53832211  0.47058053    -0.80200
O47         O  0.88237074  0.42758341  0.47362502    -0.80200
O48         O  0.94651504  0.62828396  0.48404210    -0.80100
O49         O  0.06059148  0.33920680  0.48237127    -0.80200
Co50       Co  0.89649271  0.49715054  0.00120204     1.51500
Co51       Co  0.09053925  0.49241634  0.00044148     1.51700
Co52       Co  0.01534953  0.40954260  0.99561432     1.51600
Co53       Co  0.01896240  0.58008620  0.00346366     1.51500
O54         O  0.99144731  0.49479460  0.00186554    -1.42100
C55         C  0.90739415  0.60562234  0.46510687     1.09500
C56         C  0.10453021  0.36525107  0.46661040     1.09500
C57         C  0.91653412  0.40469871  0.45247253     1.09500
C58         C  0.11432433  0.57778650  0.45446136     1.09500
C59         C  0.74429962  0.26555979  0.37555915    -0.02500
O60         O  0.40282487  0.07059315  0.47086023    -0.80200
O61         O  0.41940280  0.93229498  0.02372715    -0.80200
O62         O  0.44349331  0.93871557  0.45343065    -0.80200
O63         O  0.47780091  0.07073731  0.06930382    -0.80100
O64         O  0.46559751  0.85316540  0.47993148    -0.80300
O65         O  0.40526499  0.08113774  0.03318802    -0.80200
O66         O  0.47951994  0.94497596  0.06489131    -0.80200
O67         O  0.47022315  0.05498772  0.43323473    -0.80200
C68         C  0.41638671  0.07437129  0.44228483     1.09500
C69         C  0.42945446  0.92387185  0.05264024     1.09400
C70         C  0.43368663  0.88113759  0.45900469     1.09600
C71         C  0.42282839  0.08864539  0.06087133     1.09400
O72         O  0.52339688  0.14660226  0.02952323    -0.80200
O73         O  0.57379064  0.91278268  0.46796311    -0.80200
O74         O  0.59230848  0.05394982  0.45957950    -0.80200
O75         O  0.60601370  0.95536901  0.03336589    -0.80200
O76         O  0.54468900  0.87931861  0.02778481    -0.80200
O77         O  0.52648141  0.13304021  0.46587525    -0.80200
O78         O  0.59686634  0.07564766  0.03557269    -0.80100
O79         O  0.55577429  0.95994522  0.42253556    -0.80200
Co80       Co  0.46542303  0.10275408  0.49981000     1.51500
Co81       Co  0.49342903  0.92831044  0.49574280     1.51700
Co82       Co  0.52185185  0.99575688  0.45960502     1.51600
Co83       Co  0.53929873  0.01139837  0.04831619     1.51500
O84         O  0.50464241  0.01757884  0.50445751    -1.42100
C85         C  0.57855845  0.13024122  0.03852747     1.09500
C86         C  0.58487546  0.91867167  0.43827653     1.09500
C87         C  0.57906777  0.11058298  0.45568731     1.09500
C88         C  0.59707630  0.89938261  0.03682336     1.09500
C89         C  0.26087368  0.75258936  0.37749091    -0.02500
O90         O  0.92102625  0.13515805  0.26429729    -0.80200
O91         O  0.05884018  0.90503278  0.28330795    -0.80200
O92         O  0.91715616  0.93868286  0.29628665    -0.80200
O93         O  0.06532777  0.03910780  0.29518361    -0.80100
O94         O  0.94260124  0.86907679  0.26287011    -0.80300
O95         O  0.04938688  0.12345746  0.26667043    -0.80200
O96         O  0.14806930  0.95167992  0.27291491    -0.80200
O97         O  0.90260675  0.06011879  0.29788265    -0.80200
C98         C  0.90127009  0.11632599  0.29096845     1.09500
C99         C  0.11860587  0.91139454  0.28855461     1.09400
C100        C  0.91679794  0.88392343  0.28835876     1.09600
C101        C  0.07152425  0.09634208  0.29106320     1.09400
O102        O  0.04916533  0.07371358  0.20336454    -0.80200
O103        O  0.95505239  0.92918929  0.20430312    -0.80200
O104        O  0.84635590  0.06298823  0.23625596    -0.80200
O105        O  0.08993620  0.93930879  0.21642667    -0.80200
O106        O  0.04616735  0.85077297  0.22697930    -0.80200
O107        O  0.92398669  0.07886278  0.20301934    -0.80200
O108        O  0.12387887  0.05256932  0.23618330    -0.80100
O109        O  0.86634219  0.93876702  0.23194081    -0.80200
Co110      Co  0.98581715  0.09763992  0.23461464     1.51500
Co111      Co  0.00678299  0.92297184  0.24234858     1.51700
Co112      Co  0.88869212  0.00002032  0.26523537     1.51600
Co113      Co  0.07171285  0.98820032  0.25764122     1.51500
O114        O  0.97981533  0.01032462  0.25043273    -1.42100
C115        C  0.10545094  0.07922691  0.21140133     1.09500
C116        C  0.89610710  0.92097198  0.20736337     1.09500
C117        C  0.86677268  0.08516847  0.21044543     1.09500
C118        C  0.08457963  0.88173900  0.21065943     1.09500
C119        C  0.75972487  0.75892980  0.12295324    -0.02500
C120        C  0.25354504  0.24759790  0.13393706    -0.02500
C121        C  0.73833934  0.25861170  0.12589818    -0.02500
C122        C  0.25511552  0.75967448  0.12171469    -0.02500
C123        C  0.24644339  0.23431756  0.36824689    -0.02500
C124        C  0.75781445  0.74685890  0.37471013    -0.02500
C125        C  0.20471381  0.13238056  0.34592406    -0.21300
C126        C  0.20151200  0.19693657  0.34738632    -0.09400
C127        C  0.15553139  0.22756763  0.32849967     0.29500
C128        C  0.11191283  0.19474797  0.31134870    -0.21300
C129        C  0.11303215  0.13054726  0.31202098    -0.09400
C130        C  0.16040595  0.09977081  0.32935329     0.29500
F131        F  0.16618582  0.03787280  0.32921953    -0.19900
H132        H  0.24192098  0.10574312  0.35702045     0.17900
H133        H  0.07728377  0.21977799  0.29734814     0.17900
F134        F  0.15149806  0.28960336  0.32739882    -0.19900
C135        C  0.20386986  0.10323447  0.18256383    -0.21300
C136        C  0.14538580  0.12235803  0.19424982    -0.09400
C137        C  0.12483108  0.18321945  0.18943903     0.29500
C138        C  0.16158215  0.22356502  0.17164489    -0.21300
C139        C  0.21669744  0.20285102  0.15587876    -0.09400
C140        C  0.23962664  0.14251946  0.16386151     0.29500
F141        F  0.29765525  0.12094442  0.15508454    -0.19900
H142        H  0.22148717  0.05719679  0.18745147     0.17900
H143        H  0.14544175  0.27067313  0.16906972     0.17900
F144        F  0.06941505  0.20376522  0.20221097    -0.19900
C145        C  0.90741572  0.80035054  0.32784259    -0.21300
C146        C  0.87892645  0.84139606  0.30672535    -0.09400
C147        C  0.81304398  0.84726623  0.30571904     0.29500
C148        C  0.77589300  0.81513231  0.32707502    -0.21300
C149        C  0.80350419  0.77815238  0.35095627    -0.09400
C150        C  0.87034260  0.76770643  0.34936812     0.29500
F151        F  0.90071450  0.72443257  0.36703245    -0.19900
H152        H  0.95827145  0.79434955  0.32801088     0.17900
H153        H  0.72510385  0.82124910  0.32591117     0.17900
F154        F  0.78458599  0.88577269  0.28465554    -0.19900
C155        C  0.15734859  0.88816930  0.16398261    -0.21300
C156        C  0.12090099  0.85270947  0.18481134    -0.09400
C157        C  0.12008058  0.78910443  0.18078390     0.29500
C158        C  0.15982355  0.76156479  0.15870620    -0.21300
C159        C  0.20362856  0.79584927  0.14069956    -0.09400
C160        C  0.19675293  0.86050065  0.14147492     0.29500
F161        F  0.22575432  0.89767734  0.12032254    -0.19900
H162        H  0.15556332  0.93760634  0.16513991     0.17900
H163        H  0.16011991  0.71216061  0.15747086     0.17900
F164        F  0.08324297  0.75270706  0.19913041    -0.19900
C165        C  0.79788864  0.89015292  0.17995233    -0.21300
C166        C  0.86323914  0.88334409  0.18419822    -0.09400
C167        C  0.89557283  0.83547421  0.16884466     0.29500
C168        C  0.86287897  0.79491505  0.15020125    -0.21300
C169        C  0.79743096  0.80296203  0.14421953    -0.09400
C170        C  0.76546767  0.85117090  0.16028910     0.29500
F171        F  0.70238396  0.86121207  0.15701521    -0.19900
H172        H  0.77158525  0.92582929  0.19201267     0.17900
H173        H  0.88966586  0.75625488  0.14144089     0.17900
F174        F  0.95849863  0.82536990  0.17321900    -0.19900
C175        C  0.74274323  0.15501214  0.15671093    -0.21300
C176        C  0.77059253  0.21192787  0.14870339    -0.09400
C177        C  0.82498476  0.22823111  0.16536316     0.29500
C178        C  0.85448260  0.18653598  0.18567779    -0.21300
C179        C  0.82906962  0.12877274  0.19156587    -0.09400
C180        C  0.77181149  0.11377356  0.17785520     0.29500
F181        F  0.74528122  0.05879492  0.18401847    -0.19900
H182        H  0.69839712  0.14191451  0.14662734     0.17900
H183        H  0.89793538  0.19941150  0.19688689     0.17900
F184        F  0.85104361  0.28406785  0.16150458    -0.19900
C185        C  0.24640346  0.84836710  0.34280549    -0.21300
C186        C  0.21832177  0.79664329  0.35710406    -0.09400
C187        C  0.15630990  0.78251006  0.34707595     0.29500
C188        C  0.12357978  0.82124366  0.32593277    -0.21300
C189        C  0.15187246  0.87344217  0.31284787    -0.09400
C190        C  0.21396270  0.88651019  0.32166904     0.29500
F191        F  0.24441927  0.93559179  0.30941213    -0.19900
H192        H  0.29505011  0.85940657  0.34777576     0.17900
H193        H  0.07660516  0.80860057  0.31863682     0.17900
F194        F  0.12836157  0.72929188  0.35539246    -0.19900
C195        C  0.63287923  0.25052362  0.09492483    -0.21300
C196        C  0.69346886  0.22664655  0.10305346    -0.09400
C197        C  0.71753199  0.17669125  0.08560740     0.29500
C198        C  0.68110765  0.14923986  0.06323957    -0.21300
C199        C  0.61943967  0.17025774  0.05683281    -0.09400
C200        C  0.59631801  0.22279578  0.07202157     0.29500
F201        F  0.53820570  0.24674670  0.06525346    -0.19900
H202        H  0.61374043  0.29122181  0.10581252     0.17900
H203        H  0.70105065  0.10962653  0.05152086     0.17900
F204        F  0.77647182  0.15290801  0.09056287    -0.19900
C205        C  0.31636135  0.12489301  0.07757893    -0.21300
C206        C  0.38191826  0.12635950  0.08135858    -0.09400
C207        C  0.40737268  0.17082020  0.10073787     0.29500
C208        C  0.36757279  0.21352906  0.11571737    -0.21300
C209        C  0.30106860  0.20957147  0.11383285    -0.09400
C210        C  0.27646671  0.16522704  0.09356938     0.29500
F211        F  0.21309244  0.15902068  0.09024167    -0.19900
H212        H  0.29573914  0.09195138  0.06221010     0.17900
H213        H  0.38955070  0.24880060  0.12890533     0.17900
F214        F  0.47085863  0.17431760  0.10444609    -0.19900
C215        C  0.38233408  0.88299811  0.10355298    -0.21300
C216        C  0.38633358  0.88268961  0.07069124    -0.09400
C217        C  0.35144753  0.83896237  0.05475591     0.29500
C218        C  0.31210998  0.79873378  0.07098788    -0.21300
C219        C  0.30274284  0.80197685  0.10374520    -0.09400
C220        C  0.34165723  0.84301085  0.11992468     0.29500
F221        F  0.33875058  0.84595169  0.15162801    -0.19900
H222        H  0.41018211  0.91467380  0.11659670     0.17900
H223        H  0.29027087  0.76424497  0.05721058     0.17900
F224        F  0.35687059  0.83300055  0.02324231    -0.19900
C225        C  0.62670425  0.81376405  0.42897356    -0.21300
C226        C  0.63100952  0.87677366  0.42327962    -0.09400
C227        C  0.67954171  0.89831057  0.40375493     0.29500
C228        C  0.72183385  0.85752261  0.38939746    -0.21300
C229        C  0.71457479  0.79354272  0.39242521    -0.09400
C230        C  0.66759145  0.77257051  0.41381960     0.29500
F231        F  0.65974595  0.71190760  0.41939161    -0.19900
H232        H  0.59027083  0.79622731  0.44454990     0.17900
H233        H  0.76041688  0.87718053  0.37618809     0.17900
F234        F  0.68784197  0.95891410  0.39930977    -0.19900
C235        C  0.26881433  0.14953448  0.40893594    -0.21300
C236        C  0.29380912  0.19183991  0.38682212    -0.09400
C237        C  0.36111451  0.19484561  0.38466806     0.29500
C238        C  0.39968697  0.15252534  0.40066332    -0.21300
C239        C  0.37378771  0.10958978  0.42139324    -0.09400
C240        C  0.30793995  0.10915551  0.42594193     0.29500
F241        F  0.28135213  0.07004533  0.44706848    -0.19900
H242        H  0.21811662  0.14736737  0.41276210     0.17900
H243        H  0.45066347  0.15652164  0.39865840     0.17900
F244        F  0.39143852  0.24111421  0.36978913    -0.19900
C245        C  0.63807474  0.79806158  0.05780766    -0.21300
C246        C  0.64494240  0.86130106  0.05390219    -0.09400
C247        C  0.69626872  0.88919006  0.06855247     0.29500
C248        C  0.73510014  0.85587409  0.08911427    -0.21300
C249        C  0.72355698  0.79399143  0.09640608    -0.09400
C250        C  0.67804385  0.76432231  0.07799832     0.29500
F251        F  0.66775076  0.70365253  0.08176789    -0.19900
H252        H  0.60036742  0.77497332  0.04608154     0.17900
H253        H  0.77342564  0.87975206  0.09976308     0.17900
F254        F  0.70778834  0.94964267  0.06424574    -0.19900
C255        C  0.28904762  0.84760967  0.41044208    -0.21300
C256        C  0.30029052  0.78581253  0.40246118    -0.09400
C257        C  0.35048090  0.75417359  0.41805871     0.29500
C258        C  0.39204168  0.78518074  0.43715031    -0.21300
C259        C  0.38487662  0.84825275  0.44163209    -0.09400
C260        C  0.33178414  0.87892112  0.42889842     0.29500
F261        F  0.32096312  0.93920234  0.43431867    -0.19900
H262        H  0.24800928  0.87276434  0.40191294     0.17900
H263        H  0.43183027  0.76013334  0.44727467     0.17900
F264        F  0.36278262  0.69405503  0.41294019    -0.19900
C265        C  0.82794374  0.18185124  0.36473775    -0.21300
C266        C  0.78834278  0.22927665  0.35260606    -0.09400
C267        C  0.79688080  0.24539309  0.32036281     0.29500
C268        C  0.83616581  0.21013686  0.30096178    -0.21300
C269        C  0.86927895  0.15892434  0.31280228    -0.09400
C270        C  0.86634137  0.14606313  0.34512220     0.29500
F271        F  0.90020941  0.09853016  0.35778161    -0.19900
H272        H  0.82712437  0.17081385  0.38955538     0.17900
H273        H  0.83915960  0.22207368  0.27626014     0.17900
F274        F  0.76960796  0.29611950  0.30717172    -0.19900
C275        C  0.69473662  0.16057442  0.39167256    -0.21300
C276        C  0.70213622  0.22357484  0.39708225    -0.12600
C277        C  0.66477954  0.24929275  0.42163418     0.29500
C278        C  0.62620143  0.21267107  0.44104443    -0.21300
C279        C  0.62209593  0.14956708  0.43624492    -0.09400
C280        C  0.65550943  0.12458864  0.41075755     0.29500
F281        F  0.64641348  0.06599034  0.40270535    -0.19900
H282        H  0.71663196  0.13876132  0.37171410     0.17900
H283        H  0.59925256  0.23382538  0.45980847     0.17900
F284        F  0.66610781  0.31019585  0.42711049    -0.19900
C285        C  0.14750598  0.27630422  0.10499651    -0.21300
C286        C  0.21331134  0.28303138  0.10890003    -0.09400
C287        C  0.24406871  0.32624109  0.08913286     0.29500
C288        C  0.20954595  0.36532719  0.06938365    -0.21300
C289        C  0.14344406  0.36192468  0.06771453    -0.09400
C290        C  0.11292184  0.31600492  0.08520721     0.29500
F291        F  0.04955690  0.30932148  0.08328927    -0.19900
H292        H  0.12192479  0.24047909  0.11690440     0.17900
H293        H  0.23508899  0.39851963  0.05529688     0.17900
F294        F  0.30775190  0.33325777  0.09033634    -0.19900
C295        C  0.17695054  0.62576967  0.07742474    -0.21300
C296        C  0.14471946  0.65749036  0.05337654    -0.09400
C297        C  0.14357447  0.72174459  0.05359670     0.29500
C298        C  0.17759997  0.75285128  0.07612036    -0.21300
C299        C  0.21535617  0.72130927  0.09868305    -0.09400
C300        C  0.21010404  0.65668458  0.10024077     0.29500
F301        F  0.23245642  0.62253864  0.12464961    -0.19900
H302        H  0.17500269  0.57638649  0.07927245     0.17900
H303        H  0.17633784  0.80238353  0.07534208     0.17900
F304        F  0.11012281  0.75479906  0.03198672    -0.19900
C305        C  0.83512135  0.61031405  0.08731650    -0.21300
C306        C  0.88785016  0.63322167  0.07121968    -0.09400
C307        C  0.89703959  0.69653179  0.07065906     0.29500
C308        C  0.85475811  0.73560929  0.08661339    -0.21300
C309        C  0.80394556  0.71274717  0.10504300    -0.09400
C310        C  0.79316705  0.64886294  0.10347610     0.29500
F311        F  0.73945862  0.62314437  0.11468647    -0.19900
H312        H  0.82423762  0.56221060  0.08585239     0.17900
H313        H  0.86216079  0.78442459  0.08491557     0.17900
F314        F  0.94403141  0.72102620  0.05284058    -0.19900
C315        C  0.13364464  0.68181670  0.43249365    -0.21300
C316        C  0.14982783  0.61931840  0.43308925    -0.09400
C317        C  0.20543676  0.60010477  0.41741431     0.29500
C318        C  0.24041785  0.64189299  0.39928961    -0.21300
C319        C  0.22233743  0.70468576  0.39700266    -0.09400
C320        C  0.17058207  0.72411524  0.41589406     0.29500
F321        F  0.15457754  0.78432562  0.41774078    -0.19900
H322        H  0.09358257  0.69851326  0.44614212     0.17900
H323        H  0.28290630  0.62470227  0.38788800     0.17900
F324        F  0.22662360  0.54116388  0.41990474    -0.19900
C325        C  0.78157456  0.64919415  0.40700740    -0.21300
C326        C  0.79320996  0.71132730  0.40087611    -0.09400
C327        C  0.83635625  0.74092868  0.42054594     0.29500
C328        C  0.87392683  0.70687402  0.44158653    -0.21300
C329        C  0.86677965  0.64352686  0.44449491    -0.09400
C330        C  0.81823947  0.61553530  0.42781849     0.29500
F331        F  0.80547132  0.55510952  0.43131949    -0.19900
H332        H  0.74409915  0.62532814  0.39569209     0.17900
H333        H  0.90920751  0.72980371  0.45508083     0.17900
F334        F  0.84540716  0.80204185  0.41776865    -0.19900
C335        C  0.20521971  0.33733142  0.43916020    -0.21300
C336        C  0.13977187  0.33089100  0.44248916    -0.09400
C337        C  0.10800359  0.29329875  0.42185593     0.29500
C338        C  0.14146314  0.26227970  0.39843089    -0.21300
C339        C  0.20766967  0.26927090  0.39402738    -0.09400
C340        C  0.23906156  0.30575539  0.41598852     0.29500
F341        F  0.30285633  0.31169428  0.41479178    -0.19900
H342        H  0.23048991  0.36614272  0.45497689     0.17900
H343        H  0.11430640  0.23202774  0.38440396     0.17900
F344        F  0.04411287  0.28774978  0.42373389    -0.19900
C345        C  0.80068268  0.37047047  0.06301312    -0.21300
C346        C  0.86216480  0.34848045  0.05675153    -0.09400
C347        C  0.88342231  0.29464286  0.07187201     0.29500
C348        C  0.84529543  0.26641264  0.09483315    -0.21300
C349        C  0.78452336  0.29071859  0.10269058    -0.09400
C350        C  0.76202072  0.34166899  0.08488911     0.29500
F351        F  0.70247543  0.36482736  0.08897518    -0.19900
H352        H  0.78220389  0.41084443  0.05086317     0.17900
H353        H  0.86331236  0.22486101  0.10587531     0.17900
F354        F  0.94094008  0.26977190  0.06483963    -0.19900
C355        C  0.87452240  0.38015559  0.39938425    -0.21300
C356        C  0.88477132  0.36369232  0.43075822    -0.09400
C357        C  0.85188180  0.31405875  0.44369471     0.29500
C358        C  0.80741231  0.28346397  0.42621975    -0.21300
C359        C  0.79226369  0.30217634  0.39526124    -0.09400
C360        C  0.83000002  0.34905168  0.38158179     0.29500
F361        F  0.82306672  0.36606479  0.35111621    -0.19900
H362        H  0.89905389  0.41864509  0.38900805     0.17900
H363        H  0.78554659  0.24443835  0.43739109     0.17900
F364        F  0.86138866  0.29614525  0.47392732    -0.19900
C365        C  0.71943471  0.61990407  0.31655563    -0.21300
C366        C  0.65482327  0.62962256  0.31093484    -0.09400
C367        C  0.62242541  0.67666307  0.32683713     0.29500
C368        C  0.65432785  0.71354845  0.34760408    -0.21300
C369        C  0.71944288  0.70395107  0.35366284    -0.09400
C370        C  0.75150105  0.65666639  0.33711586     0.29500
F371        F  0.81445961  0.64572153  0.34082574    -0.19900
H372        H  0.74594361  0.58439147  0.30448379     0.17900
H373        H  0.62764333  0.75092058  0.35780953     0.17900
F374        F  0.56015600  0.68846536  0.32174751    -0.19900
C375        C  0.35885311  0.29145470  0.30224462    -0.21300
C376        C  0.36336519  0.35391199  0.30862597    -0.09400
C377        C  0.32257753  0.37918111  0.33149830     0.29500
C378        C  0.28141065  0.34217601  0.34869333    -0.21300
C379        C  0.28217631  0.27806995  0.34528004    -0.09400
C380        C  0.31847218  0.25405031  0.31997163     0.29500
F381        F  0.31874936  0.19332891  0.31393564    -0.19900
H382        H  0.38756839  0.27110214  0.28386345     0.17900
H383        H  0.24980767  0.36487565  0.36494017     0.17900
F384        F  0.32138235  0.44012125  0.33714657    -0.19900
C385        C  0.62306626  0.32971867  0.18666691    -0.21300
C386        C  0.65009170  0.38645040  0.19235646    -0.09400
C387        C  0.70680313  0.40151907  0.17732808     0.29500
C388        C  0.73432196  0.36131252  0.15565597    -0.21300
C389        C  0.70562416  0.30513518  0.14826342    -0.09400
C390        C  0.65106767  0.28888567  0.16569757     0.29500
F391        F  0.62382848  0.23379694  0.16222223    -0.19900
H392        H  0.57943724  0.31711258  0.19846300     0.17900
H393        H  0.77853021  0.37460717  0.14483172     0.17900
F394        F  0.73423391  0.45590577  0.18264704    -0.19900
C395        C  0.29090589  0.72148401  0.17721268    -0.21300
C396        C  0.29685350  0.71868593  0.14418751    -0.09400
C397        C  0.34404623  0.67788791  0.13228552     0.29500
C398        C  0.37743458  0.63722495  0.15237875    -0.21300
C399        C  0.36503749  0.63628109  0.18476872    -0.09400
C400        C  0.32240417  0.67992156  0.19695571     0.29500
F401        F  0.31291063  0.68435942  0.22835261    -0.19900
H402        H  0.26220521  0.75611660  0.18854953     0.17900
H403        H  0.41206774  0.60560758  0.14253605     0.17900
F404        F  0.35564626  0.67521939  0.10101803    -0.19900
C405        C  0.60956037  0.70781989  0.16982645    -0.21300
C406        C  0.63487062  0.66127728  0.18901590    -0.09400
C407        C  0.70038745  0.64981390  0.18850588     0.29500
C408        C  0.73950081  0.68388470  0.16845360    -0.21300
C409        C  0.71390869  0.72651593  0.14643592    -0.09400
C410        C  0.64791438  0.74040635  0.14898733     0.29500
F411        F  0.61977601  0.78765085  0.13313843    -0.19900
H412        H  0.55945087  0.71938006  0.17107789     0.17900
H413        H  0.79009583  0.67480085  0.16896123     0.17900
F414        F  0.72681487  0.60705102  0.20803551    -0.19900
C415        C  0.61349977  0.31100579  0.31636015    -0.21300
C416        C  0.61103928  0.37493029  0.31767458    -0.09400
C417        C  0.64659346  0.40353349  0.34092470     0.29500
C418        C  0.68696937  0.36899177  0.36062989    -0.21300
C419        C  0.69454623  0.30519749  0.35720572    -0.09400
C420        C  0.65360564  0.27655807  0.33597022     0.29500
F421        F  0.65587125  0.21506612  0.33229514    -0.19900
H422        H  0.58591349  0.28742366  0.29924957     0.17900
H423        H  0.71298981  0.39296019  0.37809453     0.17900
F424        F  0.64468757  0.46524619  0.34389853    -0.19900
C425        C  0.40339824  0.71479379  0.32173918    -0.21300
C426        C  0.37994773  0.66491890  0.30597838    -0.09400
C427        C  0.31699719  0.64800919  0.31090184     0.29500
C428        C  0.27936578  0.67805199  0.33293949    -0.21300
C429        C  0.30471045  0.72274660  0.35239540    -0.09400
C430        C  0.36645045  0.74392110  0.34463169     0.29500
F431        F  0.39142400  0.79335674  0.35830115    -0.19900
H432        H  0.45093932  0.73014012  0.31704604     0.17900
H433        H  0.23071550  0.66423856  0.33582449     0.17900
F434        F  0.29227637  0.60131879  0.29474601    -0.19900
C435        C  0.25885373  0.35672526  0.15746644    -0.21300
C436        C  0.28242665  0.29515311  0.15627380    -0.09400
C437        C  0.32862336  0.27768541  0.17859052     0.29500
C438        C  0.35729531  0.32155974  0.19668848    -0.21300
C439        C  0.33811102  0.38316351  0.19467856    -0.09400
C440        C  0.28712143  0.40032816  0.17593835     0.29500
F441        F  0.26606348  0.45938554  0.17470141    -0.19900
H442        H  0.21826722  0.37234477  0.14410815     0.17900
H443        H  0.39550117  0.30741154  0.21215913     0.17900
F444        F  0.34781172  0.21854607  0.18240490    -0.19900
O445        O  0.43239499  0.43302484  0.70297246    -0.80200
O446        O  0.54935366  0.65958443  0.72486860    -0.80200
O447        O  0.37261583  0.57638314  0.73183384    -0.80200
O448        O  0.63219545  0.45339045  0.73600669    -0.80100
O449        O  0.45889012  0.58481345  0.70243997    -0.80300
O450        O  0.55680566  0.44007034  0.70357051    -0.80200
O451        O  0.59984515  0.57153811  0.71707264    -0.80200
O452        O  0.35494000  0.45221798  0.73614821    -0.80200
C453        C  0.37544103  0.42834998  0.71101723     1.09500
C454        C  0.59340183  0.62975188  0.71145882     1.09400
C455        C  0.40017513  0.59483877  0.70665442     1.09600
C456        C  0.61324827  0.43092044  0.71078291     1.09400
O457        O  0.55883401  0.38532522  0.76794301    -0.80200
O458        O  0.44709911  0.64187469  0.76194664    -0.80200
O459        O  0.41164397  0.44893410  0.79701821    -0.80200
O460        O  0.65455234  0.55135720  0.77294492    -0.80200
O461        O  0.56417831  0.60170493  0.78091994    -0.80200
O462        O  0.43029480  0.37490467  0.76411345    -0.80200
O463        O  0.57065917  0.46838169  0.79565738    -0.80100
O464        O  0.42609621  0.56993446  0.79542838    -0.80200
Co465      Co  0.49502948  0.41326791  0.73481744     1.51500
Co466      Co  0.51165410  0.58751219  0.74032020     1.51700
Co467      Co  0.39671669  0.51197653  0.76475740     1.51600
Co468      Co  0.57907222  0.51912348  0.75743845     1.51500
O469        O  0.48721967  0.50047622  0.74937368    -1.42100
C470        C  0.57662635  0.41108416  0.79301346     1.09500
C471        C  0.42199554  0.62513629  0.78752886     1.09500
C472        C  0.40580011  0.39394155  0.78956482     1.09500
C473        C  0.62359783  0.59287583  0.78710942     1.09500
O474        O  0.89346126  0.44389087  0.53815513    -0.80200
O475        O  0.11766891  0.56346754  0.52905835    -0.80200
O476        O  0.05156108  0.39569717  0.53878810    -0.80200
O477        O  0.97993290  0.58833462  0.54606005    -0.80100
O478        O  0.13875876  0.44252888  0.53015195    -0.80300
O479        O  0.88495845  0.56774868  0.52919573    -0.80200
O480        O  0.06738194  0.64950012  0.51306182    -0.80200
O481        O  0.94221985  0.36425787  0.51638264    -0.80200
C482        C  0.90287566  0.38675070  0.53639490     1.09500
C483        C  0.10920835  0.62260686  0.53009207     1.09400
C484        C  0.10932564  0.40240815  0.54509566     1.09600
C485        C  0.92022457  0.59353227  0.54833285     1.09400
O486        O  0.90026937  0.54866185  0.96396151    -0.80200
O487        O  0.11603967  0.42294463  0.96984984    -0.80200
O488        O  0.97575108  0.41125280  0.95300035    -0.80200
O489        O  0.05543416  0.58485068  0.95960448    -0.80200
O490        O  0.14304324  0.53824035  0.97056824    -0.80200
O491        O  0.88226762  0.42742810  0.97353481    -0.80200
O492        O  0.94644934  0.62815889  0.98393216    -0.80100
O493        O  0.06057679  0.33911437  0.98235518    -0.80200
Co494      Co  0.89663243  0.49725812  0.50130057     1.51500
Co495      Co  0.09065581  0.49249462  0.50046469     1.51700
Co496      Co  0.01545557  0.40966175  0.49564596     1.51600
Co497      Co  0.01907986  0.58020769  0.50353534     1.51500
O498        O  0.99157658  0.49490817  0.50193525    -1.42100
C499        C  0.90738477  0.60550361  0.96496690     1.09500
C500        C  0.10451512  0.36519228  0.96660478     1.09500
C501        C  0.91647940  0.40450268  0.95241060     1.09500
C502        C  0.11425519  0.57764294  0.95441038     1.09500
C503        C  0.74418339  0.26534583  0.87555341    -0.02500
O504        O  0.40273401  0.07035218  0.97087526    -0.80200
O505        O  0.41952890  0.93257396  0.52371500    -0.80200
O506        O  0.44330337  0.93849739  0.95347047    -0.80200
O507        O  0.47799647  0.07107306  0.56927063    -0.80100
O508        O  0.46547696  0.85292606  0.97994291    -0.80300
O509        O  0.40540607  0.08147601  0.53318049    -0.80200
O510        O  0.47966451  0.94529434  0.56487423    -0.80200
O511        O  0.47012479  0.05477544  0.93325249    -0.80200
C512        C  0.41631363  0.07419658  0.94230529     1.09500
C513        C  0.42961044  0.92415560  0.55262571     1.09400
C514        C  0.43350934  0.88091520  0.95904340     1.09600
C515        C  0.42301613  0.08899648  0.56085636     1.09400
O516        O  0.52357079  0.14687230  0.52945939    -0.80200
O517        O  0.57365882  0.91254256  0.96794118    -0.80200
O518        O  0.59217522  0.05370165  0.95955387    -0.80200
O519        O  0.60614941  0.95561910  0.53333865    -0.80200
O520        O  0.54479626  0.87958169  0.52778579    -0.80200
O521        O  0.52639976  0.13281906  0.96592760    -0.80200
O522        O  0.59701398  0.07588843  0.53547937    -0.80100
O523        O  0.55553401  0.95971584  0.92252815    -0.80200
Co524      Co  0.46530601  0.10248942  0.99984406     1.51500
Co525      Co  0.49331666  0.92805942  0.99574988     1.51700
Co526      Co  0.52169726  0.99551383  0.95961459     1.51600
Co527      Co  0.53944994  0.01168571  0.54827786     1.51500
O528        O  0.50454952  0.01732733  0.00447850    -1.42100
C529        C  0.57873979  0.13048585  0.53844240     1.09500
C530        C  0.58470528  0.91846386  0.93824956     1.09500
C531        C  0.57894963  0.11035072  0.95569571     1.09500
C532        C  0.59720298  0.89963503  0.53680509     1.09500
C533        C  0.26088209  0.75241848  0.87745757    -0.02500
O534        O  0.92128435  0.13527560  0.76432359    -0.80200
O535        O  0.05916215  0.90513619  0.78323745    -0.80200
O536        O  0.91758450  0.93879031  0.79621412    -0.80200
O537        O  0.06563953  0.03928138  0.79518788    -0.80100
O538        O  0.94293489  0.86923413  0.76276273    -0.80300
O539        O  0.04966595  0.12364257  0.76668809    -0.80200
O540        O  0.14840494  0.95184204  0.77293581    -0.80200
O541        O  0.90296336  0.06015721  0.79786774    -0.80200
C542        C  0.90151651  0.11636933  0.79098168     1.09500
C543        C  0.11891546  0.91149314  0.78852014     1.09400
C544        C  0.91715378  0.88405689  0.78825913     1.09600
C545        C  0.07182636  0.09652207  0.79107208     1.09400
O546        O  0.04951647  0.07396379  0.70338726    -0.80200
O547        O  0.95543209  0.92943293  0.70422336    -0.80200
O548        O  0.84669448  0.06311907  0.73624008    -0.80200
O549        O  0.09036640  0.93949833  0.71641732    -0.80200
O550        O  0.04650339  0.85097447  0.72689676    -0.80200
O551        O  0.92432874  0.07905661  0.70301461    -0.80200
O552        O  0.12422416  0.05276323  0.73620830    -0.80100
O553        O  0.86672682  0.93895563  0.73186998    -0.80200
Co554      Co  0.98612566  0.09783148  0.73462666     1.51500
Co555      Co  0.00713753  0.92315434  0.74227672     1.51700
Co556      Co  0.88906401  0.00013861  0.76519505     1.51600
Co557      Co  0.07206743  0.98837242  0.75764117     1.51500
O558        O  0.98017556  0.01048860  0.75040244    -1.42100
C559        C  0.10579659  0.07946730  0.71143926     1.09500
C560        C  0.89648459  0.92121967  0.70728058     1.09500
C561        C  0.86710366  0.08530663  0.71043073     1.09500
C562        C  0.08496926  0.88194436  0.71061359     1.09500
C563        C  0.75992266  0.75924111  0.62292673    -0.02500
C564        C  0.25379234  0.24789111  0.63400237    -0.02500
C565        C  0.73851235  0.25862838  0.62588655    -0.02500
C566        C  0.25543093  0.75981682  0.62166680    -0.02500
C567        C  0.24674342  0.23449572  0.86826725    -0.02500
C568        C  0.75802258  0.74708066  0.87457910    -0.02500
C569        C  0.20494620  0.13255527  0.84597276    -0.21300
C570        C  0.20186557  0.19712664  0.84736769    -0.09400
C571        C  0.15603780  0.22776242  0.82839504     0.29500
C572        C  0.11239685  0.19494617  0.81125462    -0.21300
C573        C  0.11335505  0.13074100  0.81201623    -0.09400
C574        C  0.16061484  0.09995362  0.82941621     0.29500
F575        F  0.16625459  0.03804174  0.82937293    -0.19900
H576        H  0.24206040  0.10588280  0.85712265     0.17900
H577        H  0.07787395  0.21998421  0.79719376     0.17900
F578        F  0.15215165  0.28980170  0.82721259    -0.19900
C579        C  0.20426585  0.10356763  0.68267591    -0.21300
C580        C  0.14572880  0.12263512  0.69432032    -0.09400
C581        C  0.12511097  0.18347182  0.68949250     0.29500
C582        C  0.16183660  0.22383566  0.67170063    -0.21300
C583        C  0.21698892  0.20315236  0.65595686    -0.09400
C584        C  0.23999868  0.14287024  0.66397490     0.29500
F585        F  0.29806309  0.12135757  0.65521611    -0.19900
H586        H  0.22193154  0.05755503  0.68758428     0.17900
H587        H  0.14564215  0.27092274  0.66910310     0.17900
F588        F  0.06965247  0.20397086  0.70223931    -0.19900
C589        C  0.90770271  0.80066031  0.82780154    -0.21300
C590        C  0.87924527  0.84155687  0.80660987    -0.09400
C591        C  0.81336265  0.84738884  0.80555528     0.29500
C592        C  0.77617842  0.81531851  0.82692404    -0.21300
C593        C  0.80374860  0.77846577  0.85086817    -0.09400
C594        C  0.87061076  0.76809349  0.84934005     0.29500
F595        F  0.90099814  0.72490007  0.86704653    -0.19900
H596        H  0.95857561  0.79470485  0.82801325     0.17900
H597        H  0.72537697  0.82135539  0.82570816     0.17900
F598        F  0.78494234  0.88580017  0.78443480    -0.19900
C599        C  0.15775028  0.88836986  0.66393506    -0.21300
C600        C  0.12128813  0.85292221  0.68476248    -0.09400
C601        C  0.12041599  0.78932060  0.68072314     0.29500
C602        C  0.16012941  0.76176484  0.65864116    -0.21300
C603        C  0.20395062  0.79602590  0.64063666    -0.09400
C604        C  0.19711559  0.86068307  0.64141550     0.29500
F605        F  0.22611676  0.89784673  0.62025630    -0.19900
H606        H  0.15599653  0.93780615  0.66509905     0.17900
H607        H  0.16039413  0.71236196  0.65740433     0.17900
F608        F  0.08355783  0.75293398  0.69906445    -0.19900
C609        C  0.79827218  0.89058709  0.67981627    -0.21300
C610        C  0.86359787  0.88364185  0.68410507    -0.09400
C611        C  0.89585649  0.83566174  0.66880750     0.29500
C612        C  0.86310651  0.79512086  0.65017862    -0.21300
C613        C  0.79768530  0.80329125  0.64415630    -0.09400
C614        C  0.76579983  0.85161800  0.66016783     0.29500
F615        F  0.70274335  0.86178017  0.65685789    -0.19900
H616        H  0.77202632  0.92634979  0.69183910     0.17900
H617        H  0.88981773  0.75636761  0.64146945     0.17900
F618        F  0.95874575  0.82542232  0.67323659    -0.19900
C619        C  0.74297642  0.15504952  0.65671273    -0.21300
C620        C  0.77079771  0.21196746  0.64868893    -0.09400
C621        C  0.82522012  0.22829121  0.66532072     0.29500
C622        C  0.85475334  0.18662505  0.68563355    -0.21300
C623        C  0.82936778  0.12886076  0.69154057    -0.09400
C624        C  0.77210067  0.11382543  0.67784733     0.29500
F625        F  0.74561756  0.05882783  0.68401720    -0.19900
H626        H  0.69862012  0.14193918  0.64664444     0.17900
H627        H  0.89821588  0.19952512  0.69682557     0.17900
F628        F  0.85128585  0.28411746  0.66143423    -0.19900
C629        C  0.24654653  0.84828640  0.84281663    -0.21300
C630        C  0.21842987  0.79650388  0.85703846    -0.09400
C631        C  0.15648941  0.78235846  0.84691480     0.29500
C632        C  0.12383245  0.82115727  0.82577737    -0.21300
C633        C  0.15212753  0.87344331  0.81279232    -0.09400
C634        C  0.21416970  0.88650994  0.82169329     0.29500
F635        F  0.24462686  0.93568050  0.80953617    -0.19900
H636        H  0.29517460  0.85932996  0.84785130     0.17900
H637        H  0.07689512  0.80850437  0.81840843     0.17900
F638        F  0.12855598  0.72908269  0.85514046    -0.19900
C639        C  0.63311522  0.25066304  0.59486550    -0.21300
C640        C  0.69363887  0.22667907  0.60304052    -0.09400
C641        C  0.71767507  0.17670487  0.58560121     0.29500
C642        C  0.68127290  0.14933560  0.56319810    -0.21300
C643        C  0.61965211  0.17045102  0.55675459    -0.09400
C644        C  0.59657727  0.22301581  0.57193004     0.29500
F645        F  0.53853368  0.24707601  0.56511464    -0.19900
H646        H  0.61401218  0.29138841  0.60573928     0.17900
H647        H  0.70118780  0.10970527  0.55148447     0.17900
F648        F  0.77657240  0.15284197  0.59058389    -0.19900
C649        C  0.31656989  0.12516204  0.57764573    -0.21300
C650        C  0.38213772  0.12671517  0.58136085    -0.09400
C651        C  0.40760644  0.17123943  0.60069930     0.29500
C652        C  0.36780583  0.21391763  0.61570471    -0.21300
C653        C  0.30130071  0.20987502  0.61388288    -0.09400
C654        C  0.27668387  0.16546890  0.59365971     0.29500
F655        F  0.21330630  0.15917490  0.59039566    -0.19900
H656        H  0.29593258  0.09216974  0.56231082     0.17900
H657        H  0.38978138  0.24923819  0.62886027     0.17900
F658        F  0.47110087  0.17482737  0.60434226    -0.19900
C659        C  0.38259247  0.88318209  0.60353101    -0.21300
C660        C  0.38656497  0.88290741  0.57067006    -0.09400
C661        C  0.35174718  0.83913883  0.55472764     0.29500
C662        C  0.31246497  0.79885798  0.57095399    -0.21300
C663        C  0.30308053  0.80209857  0.60370843    -0.09400
C664        C  0.34197082  0.84314094  0.61989645     0.29500
F665        F  0.33906846  0.84605906  0.65160039    -0.19900
H666        H  0.41040924  0.91487885  0.61657833     0.17900
H667        H  0.29066541  0.76434612  0.55717499     0.17900
F668        F  0.35717598  0.83319803  0.52321306    -0.19900
C669        C  0.62707181  0.81368673  0.92905267    -0.21300
C670        C  0.63093243  0.87668784  0.92322284    -0.09400
C671        C  0.67909300  0.89835065  0.90350473     0.29500
C672        C  0.72154383  0.85769375  0.88915794    -0.21300
C673        C  0.71471500  0.79368062  0.89232871    -0.09400
C674        C  0.66802592  0.77260344  0.91386108     0.29500
F675        F  0.66053041  0.71192750  0.91954147    -0.19900
H676        H  0.59090461  0.79605393  0.94475366     0.17900
H677        H  0.75986535  0.87750349  0.87582498     0.17900
F678        F  0.68684959  0.95897823  0.89883357    -0.19900
C679        C  0.26892929  0.14975092  0.90899410    -0.21300
C680        C  0.29402410  0.19195239  0.88685431    -0.09400
C681        C  0.36133844  0.19475394  0.88466656     0.29500
C682        C  0.39980236  0.15235924  0.90067250    -0.21300
C683        C  0.37379550  0.10953316  0.92142926    -0.09400
C684        C  0.30795287  0.10928566  0.92599935     0.29500
F685        F  0.28127054  0.07025974  0.94713744    -0.19900
H686        H  0.21822666  0.14771672  0.91283211     0.17900
H687        H  0.45079121  0.15619477  0.89864140     0.17900
F688        F  0.39179599  0.24085998  0.86972245    -0.19900
C689        C  0.63810979  0.79832914  0.55784806    -0.21300
C690        C  0.64509057  0.86153869  0.55386455    -0.09400
C691        C  0.69654777  0.88938769  0.56842581     0.29500
C692        C  0.73538229  0.85608634  0.58899606    -0.21300
C693        C  0.72372760  0.79425928  0.59637274    -0.09400
C694        C  0.67809013  0.76459937  0.57803658     0.29500
F695        F  0.66769063  0.70396355  0.58187649    -0.19900
H696        H  0.60030430  0.77526208  0.54618762     0.17900
H697        H  0.77380286  0.87992796  0.59958472     0.17900
F698        F  0.70820397  0.94978953  0.56401844    -0.19900
C699        C  0.28887701  0.84738742  0.91048393    -0.21300
C700        C  0.30016060  0.78560186  0.90249283    -0.09400
C701        C  0.35028716  0.75394669  0.91813057     0.29500
C702        C  0.39181336  0.78495135  0.93723775    -0.21300
C703        C  0.38466719  0.84803115  0.94169731    -0.09400
C704        C  0.33158239  0.87869939  0.92895627     0.29500
F705        F  0.32075464  0.93898195  0.93437266    -0.19900
H706        H  0.24785183  0.87253971  0.90193692     0.17900
H707        H  0.43158046  0.75989849  0.94737936     0.17900
F708        F  0.36259632  0.69382695  0.91302051    -0.19900
C709        C  0.82756778  0.18140721  0.86472643    -0.21300
C710        C  0.78822693  0.22904649  0.85261102    -0.09400
C711        C  0.79708375  0.24539308  0.82041784     0.29500
C712        C  0.83648688  0.21022602  0.80102857    -0.21300
C713        C  0.86938390  0.15885094  0.81283301    -0.09400
C714        C  0.86606147  0.14569828  0.84511992     0.29500
F715        F  0.89964089  0.09795232  0.85775876    -0.19900
H716        H  0.82649987  0.17016449  0.88951939     0.17900
H717        H  0.83973797  0.22236416  0.77635884     0.17900
F718        F  0.76996680  0.29623563  0.80726719    -0.19900
C719        C  0.69419558  0.16047748  0.89151276    -0.21300
C720        C  0.70201466  0.22336826  0.89708315    -0.12600
C721        C  0.66500920  0.24900548  0.92178228     0.29500
C722        C  0.62644686  0.21236504  0.94119767    -0.21300
C723        C  0.62194375  0.14934667  0.93623498    -0.09400
C724        C  0.65491097  0.12449654  0.91057737     0.29500
F725        F  0.64528888  0.06608128  0.90234847    -0.19900
H726        H  0.71581408  0.13878296  0.87144766     0.17900
H727        H  0.59981379  0.23343904  0.96009149     0.17900
F728        F  0.66668112  0.30983636  0.92740636    -0.19900
C729        C  0.14774147  0.27645558  0.60504011    -0.21300
C730        C  0.21352360  0.28330261  0.60897464    -0.09400
C731        C  0.24423049  0.32659280  0.58923766     0.29500
C732        C  0.20967219  0.36563056  0.56948242    -0.21300
C733        C  0.14358761  0.36208564  0.56776700    -0.09400
C734        C  0.11312062  0.31609072  0.58523251     0.29500
F735        F  0.04978272  0.30925308  0.58326027    -0.19900
H736        H  0.12221460  0.24056851  0.61692985     0.17900
H737        H  0.23517846  0.39889162  0.55542197     0.17900
F738        F  0.30789292  0.33373170  0.59047680    -0.19900
C739        C  0.17717589  0.62589737  0.57742334    -0.21300
C740        C  0.14498219  0.65760158  0.55335886    -0.09400
C741        C  0.14393009  0.72185771  0.55353573     0.29500
C742        C  0.17797256  0.75297726  0.57604799    -0.21300
C743        C  0.21567632  0.72144514  0.59863483    -0.09400
C744        C  0.21036037  0.65682630  0.60022337     0.29500
F745        F  0.23266429  0.62270684  0.62465251    -0.19900
H746        H  0.17516182  0.57652070  0.57929965     0.17900
H747        H  0.17676113  0.80250926  0.57524359     0.17900
F748        F  0.11055381  0.75490066  0.53189272    -0.19900
C749        C  0.83523875  0.61052645  0.58736628    -0.21300
C750        C  0.88803462  0.63336585  0.57129707    -0.09400
C751        C  0.89726912  0.69666910  0.57071009     0.29500
C752        C  0.85497187  0.73580622  0.58661606    -0.21300
C753        C  0.80410322  0.71301018  0.60502797    -0.09400
C754        C  0.79326487  0.64913642  0.60347408     0.29500
F755        F  0.73949567  0.62348524  0.61465381    -0.19900
H756        H  0.82431576  0.56243015  0.58591420     0.17900
H757        H  0.86241997  0.78461267  0.58490371     0.17900
F758        F  0.94432451  0.72109726  0.55290938    -0.19900
C759        C  0.13347407  0.68160636  0.93234083    -0.21300
C760        C  0.14974679  0.61913100  0.93300676    -0.09400
C761        C  0.20540207  0.59992841  0.91736486     0.29500
C762        C  0.24036961  0.64170618  0.89922205    -0.21300
C763        C  0.22225494  0.70448747  0.89690480    -0.09400
C764        C  0.17040357  0.72390105  0.91573677     0.29500
F765        F  0.15432443  0.78410023  0.91753999    -0.19900
H766        H  0.09335631  0.69830018  0.94595065     0.17900
H767        H  0.28289222  0.62452912  0.88784549     0.17900
F768        F  0.22665736  0.54101714  0.91991325    -0.19900
C769        C  0.78201596  0.64917010  0.90664510    -0.21300
C770        C  0.79342955  0.71141161  0.90069689    -0.09400
C771        C  0.83638975  0.74095731  0.92048490     0.29500
C772        C  0.87392359  0.70682662  0.94151310    -0.21300
C773        C  0.86694248  0.64343319  0.94427970    -0.09400
C774        C  0.81866157  0.61543515  0.92742759     0.29500
F775        F  0.80609654  0.55493229  0.93073681    -0.19900
H776        H  0.74470119  0.62526692  0.89522504     0.17900
H777        H  0.90901871  0.72974797  0.95512838     0.17900
F778        F  0.84527848  0.80211508  0.91784478    -0.19900
C779        C  0.20531918  0.33713070  0.93930575    -0.21300
C780        C  0.13982491  0.33087794  0.94249616    -0.09400
C781        C  0.10807783  0.29358457  0.92171680     0.29500
C782        C  0.14160798  0.26263354  0.89829315    -0.21300
C783        C  0.20787957  0.26942203  0.89403108    -0.09400
C784        C  0.23922767  0.30564425  0.91612505     0.29500
F785        F  0.30305253  0.31139056  0.91506059    -0.19900
H786        H  0.23056476  0.36573223  0.95523303     0.17900
H787        H  0.11443242  0.23259717  0.88415710     0.17900
F788        F  0.04414703  0.28827661  0.92345030    -0.19900
C789        C  0.80085449  0.37055611  0.56304579    -0.21300
C790        C  0.86231766  0.34854141  0.55676902    -0.09400
C791        C  0.88354854  0.29464961  0.57184443     0.29500
C792        C  0.84541591  0.26639089  0.59478988    -0.21300
C793        C  0.78467843  0.29073895  0.60267898    -0.09400
C794        C  0.76219214  0.34173908  0.58491076     0.29500
F795        F  0.70267334  0.36494297  0.58902350    -0.19900
H796        H  0.78239765  0.41096974  0.55092254     0.17900
H797        H  0.86340910  0.22480247  0.60580478     0.17900
F798        F  0.94105155  0.26976595  0.56479050    -0.19900
C799        C  0.87418989  0.38018648  0.89936445    -0.21300
C800        C  0.88478061  0.36348526  0.93067751    -0.09400
C801        C  0.85223493  0.31358731  0.94356234     0.29500
C802        C  0.80772064  0.28298626  0.92610653    -0.21300
C803        C  0.79219544  0.30195627  0.89523186    -0.09400
C804        C  0.82966326  0.34906296  0.88157867     0.29500
F805        F  0.82245055  0.36631295  0.85116395    -0.19900
H806        H  0.89846344  0.41886957  0.88902767     0.17900
H807        H  0.78608773  0.24377087  0.93721760     0.17900
F808        F  0.86211282  0.29542410  0.97372766    -0.19900
C809        C  0.71986636  0.62045968  0.81621260    -0.21300
C810        C  0.65511467  0.62973088  0.81084068    -0.09400
C811        C  0.62253193  0.67633594  0.82698429     0.29500
C812        C  0.65443117  0.71335164  0.84768770    -0.21300
C813        C  0.71969952  0.70420572  0.85349517    -0.09400
C814        C  0.75189394  0.65724864  0.83676488     0.29500
F815        F  0.81494365  0.64661774  0.84030744    -0.19900
H816        H  0.74649625  0.58525807  0.80396788     0.17900
H817        H  0.62756001  0.75039108  0.85808521     0.17900
F818        F  0.56003176  0.68750291  0.82224612    -0.19900
C819        C  0.35908828  0.29174026  0.80224612    -0.21300
C820        C  0.36381821  0.35414054  0.80871395    -0.09400
C821        C  0.32332011  0.37935322  0.83172473     0.29500
C822        C  0.28211363  0.34236190  0.84890635    -0.21300
C823        C  0.28258522  0.27828807  0.84535769    -0.09400
C824        C  0.31871886  0.25433177  0.81997683     0.29500
F825        F  0.31880472  0.19365547  0.81384212    -0.19900
H826        H  0.38760850  0.27143107  0.78378015     0.17900
H827        H  0.25071621  0.36505763  0.86524692     0.17900
F828        F  0.32244361  0.44023248  0.83752544    -0.19900
C829        C  0.62310805  0.32985296  0.68655719    -0.21300
C830        C  0.65020431  0.38654074  0.69227863    -0.09400
C831        C  0.70702872  0.40150512  0.67733089     0.29500
C832        C  0.73456535  0.36127148  0.65568078    -0.21300
C833        C  0.70580003  0.30515074  0.64824852    -0.09400
C834        C  0.65115589  0.28896728  0.66562881     0.29500
F835        F  0.62387470  0.23390277  0.66213434    -0.19900
H836        H  0.57940818  0.31731175  0.69830663     0.17900
H837        H  0.77883242  0.37450726  0.64489665     0.17900
F838        F  0.73455952  0.45581961  0.68270582    -0.19900
C839        C  0.29119181  0.72167595  0.67717551    -0.21300
C840        C  0.29713758  0.71883028  0.64415161    -0.09400
C841        C  0.34430009  0.67798873  0.63226167     0.29500
C842        C  0.37765692  0.63732810  0.65236727    -0.21300
C843        C  0.36526661  0.63643918  0.68475836    -0.09400
C844        C  0.32267081  0.68012536  0.69693230     0.29500
F845        F  0.31320600  0.68462636  0.72832807    -0.19900
H846        H  0.26251419  0.75634115  0.68849923     0.17900
H847        H  0.41226737  0.60567733  0.64253459     0.17900
F848        F  0.35589796  0.67527571  0.60099502    -0.19900
C849        C  0.60980659  0.70819426  0.66985436    -0.21300
C850        C  0.63509909  0.66153809  0.68898231    -0.09400
C851        C  0.70060978  0.65004468  0.68844827     0.29500
C852        C  0.73972709  0.68417923  0.66842669    -0.21300
C853        C  0.71413560  0.72687836  0.64644285    -0.09400
C854        C  0.64816339  0.74083056  0.64903544     0.29500
F855        F  0.62005154  0.78814422  0.63322792    -0.19900
H856        H  0.55970862  0.71979314  0.67113236     0.17900
H857        H  0.79031655  0.67505724  0.66891257     0.17900
F858        F  0.72702754  0.60717319  0.70791899    -0.19900
C859        C  0.61372676  0.31095967  0.81618921    -0.21300
C860        C  0.61112938  0.37487366  0.81761597    -0.09400
C861        C  0.64638343  0.40336037  0.84101683     0.29500
C862        C  0.68665145  0.36874196  0.86074569    -0.21300
C863        C  0.69443518  0.30499469  0.85719571    -0.09400
C864        C  0.65371903  0.27643721  0.83582614     0.29500
F865        F  0.65613397  0.21498057  0.83203289    -0.19900
H866        H  0.58635042  0.28744841  0.79896973     0.17900
H867        H  0.71244696  0.39261701  0.87832823     0.17900
F868        F  0.64427337  0.46503944  0.84413045    -0.19900
C869        C  0.40366049  0.71485130  0.82182169    -0.21300
C870        C  0.38027383  0.66505930  0.80597053    -0.09400
C871        C  0.31732290  0.64809251  0.81082798     0.29500
C872        C  0.27961399  0.67799228  0.83288434    -0.21300
C873        C  0.30485727  0.72263586  0.85240228    -0.09400
C874        C  0.36661973  0.74386152  0.84471805     0.29500
F875        F  0.39152898  0.79324320  0.85846644    -0.19900
H876        H  0.45121467  0.73022821  0.81719031     0.17900
H877        H  0.23096955  0.66413225  0.83571817     0.17900
F878        F  0.29267876  0.60147309  0.79459023    -0.19900
C879        C  0.25895075  0.35697087  0.65758006    -0.21300
C880        C  0.28265833  0.29545010  0.65633455    -0.09400
C881        C  0.32894687  0.27801911  0.67861000     0.29500
C882        C  0.35757572  0.32190640  0.69670978    -0.21300
C883        C  0.33826346  0.38347566  0.69474278    -0.09400
C884        C  0.28718296  0.40058970  0.67605346     0.29500
F885        F  0.26600988  0.45961339  0.67486284    -0.19900
H886        H  0.21829176  0.37253240  0.64425803     0.17900
H887        H  0.39585809  0.30779854  0.71214341     0.17900
F888        F  0.34826538  0.21891054  0.68238454    -0.19900
loop_ 
_geom_bond_atom_site_label_1 
_geom_bond_atom_site_label_2 
_geom_bond_distance 
_geom_bond_site_symmetry_2 
_ccdc_geom_bond_type 
O1            C9   1.254       .  A
O1          Co21   1.944       .  S
O2           C10   1.264       .  A
O2          Co22   1.886       .  S
O3           C11   1.280       .  A
O3          Co23   2.033       .  S
O4           C12   1.264       .  A
O4          Co24   2.031       .  S
O5           C11   1.267       .  A
O5          Co22   1.976       .  S
O6           C12   1.246       .  A
O6          Co21   1.948       .  S
O7           C10   1.296       .  A
O7          Co24   2.100       .  S
O8            C9   1.270       .  A
O8          Co23   2.026       .  S
C9          C439   1.459       .  S
C10         C406   1.471       .  S
C11         C399   1.484       .  S
C12         C386   1.470       .  S
O13          C26   1.282       .  A
O13         Co21   2.041       .  S
O14          C27   1.261       .  A
O14         Co22   2.018       .  S
O15          C28   1.258       .  A
O15         Co23   1.955       .  S
O16          C29   1.267       .  A
O16         Co24   1.887       .  S
O17          C29   1.295       .  A
O17         Co22   2.099       .  S
O18          C28   1.272       .  A
O18         Co21   2.028       .  S
O19          C26   1.264       .  A
O19         Co24   1.965       .  S
O20          C27   1.249       .  A
O20         Co23   1.953       .  S
Co21         O25   2.020       .  S
Co22         O25   2.013       .  S
Co23         O25   2.028       .  S
Co24         O25   2.025       .  S
C26         C416   1.491       .  S
C27         C426   1.462       .  S
C28         C376   1.485       .  S
C29         C366   1.478       .  S
O30          C38   1.265       .  A
O30         Co50   1.944       .  S
O31          C39   1.303       .  A
O31         Co51   2.083       .  S
O32          C40   1.264       .  A
O32         Co52   2.017   1_554  S
O33          C41   1.267       .  A
O33         Co53   1.997   1_655  S
O34          C40   1.248       .  A
O34         Co51   1.941       .  S
O35          C41   1.259       .  A
O35         Co50   1.975       .  S
O36          C39   1.278       .  A
O36         Co53   1.896       .  S
O37          C38   1.283       .  A
O37         Co52   2.041   1_654  S
C38         C346   1.476       .  S
C39         C296   1.486       .  S
C40         C289   1.482       .  S
C41         C306   1.475       .  S
O42          C55   1.257       .  A
O42        Co494   1.934       .  S
O43          C56   1.301       .  A
O43        Co495   2.081       .  S
O44          C57   1.264       .  A
O44        Co496   2.010   1_655  S
O45          C58   1.267       .  A
O45        Co497   2.019       .  S
O46          C58   1.247       .  A
O46        Co495   1.957       .  S
O47          C57   1.255       .  A
O47        Co494   1.974       .  S
O48          C55   1.275       .  A
O48        Co497   2.019   1_655  S
O49          C56   1.278       .  A
O49        Co496   1.888       .  S
Co50        O486   1.934   1_554  S
Co50        O491   1.975   1_554  S
Co50         O54   2.006       .  S
Co51        O487   2.080   1_554  S
Co51        O490   1.958   1_554  S
Co51         O54   2.093   1_455  S
Co52        O488   2.010   1_455  S
Co52        O493   1.888       .  S
Co52         O54   1.944   1_456  S
Co53        O489   2.020   1_554  S
Co53        O492   2.019   1_454  S
Co53         O54   1.967   1_455  S
C55         C329   1.469       .  S
C56         C336   1.473       .  S
C57         C356   1.477       .  S
C58         C316   1.485       .  S
C59         C266   1.560       .  S
C59         C276   1.571       .  S
C59         C359   1.565       .  S
C59         C419   1.558       .  S
O60          C68   1.252       .  A
O60         Co80   1.968       .  S
O61          C69   1.264       .  A
O61        Co525   1.958   1_554  S
O62          C70   1.298       .  A
O62         Co82   2.114       .  S
O63          C71   1.272       .  A
O63         Co83   2.031       .  S
O64          C70   1.266       .  A
O64         Co81   1.894       .  S
O65          C71   1.257       .  A
O65        Co524   1.954   1_554  S
O66          C69   1.282       .  A
O66         Co83   2.056   1_565  S
O67          C68   1.265       .  A
O67         Co82   2.013   1_545  S
C68         C239   1.471       .  S
C69         C216   1.493       .  S
C70         C259   1.481       .  S
C71         C206   1.474       .  S
O72          C85   1.273       .  A
O72        Co524   2.041   1_554  S
O73          C86   1.291       .  A
O73         Co81   2.087       .  S
O74          C87   1.273       .  A
O74         Co82   1.978   1_545  S
O75          C88   1.249       .  A
O75         Co83   1.958   1_565  S
O76          C88   1.265       .  A
O76        Co525   2.029   1_554  S
O77          C87   1.281       .  A
O77         Co80   2.041       .  S
O78          C85   1.256       .  A
O78         Co83   1.944       .  S
O79          C86   1.269       .  A
O79         Co82   1.905       .  S
Co80        O509   1.954       .  S
Co80        O516   2.041       .  S
Co80         O84   2.031       .  S
Co81        O505   1.958       .  S
Co81        O520   2.029       .  S
Co81         O84   2.013   1_565  S
Co82         O84   2.010   1_565  S
Co83        O528   2.019       .  S
O84        Co527   2.018       .  S
C85         C199   1.480       .  S
C86         C226   1.473       .  S
C87         C279   1.494       .  S
C88         C246   1.486       .  S
C89         C186   1.564       .  S
C89         C256   1.558       .  S
C89         C319   1.563       .  S
C89         C429   1.553       .  S
O90          C98   1.273       .  A
O90        Co110   2.027       .  S
O91          C99   1.295       .  A
O91        Co111   2.102       .  S
O92         C100   1.250       .  A
O92        Co112   1.960   1_565  S
O93         C101   1.270       .  A
O93        Co113   1.970   1_545  S
O94         C100   1.257       .  A
O94        Co111   2.000   1_655  S
O95         C101   1.278       .  A
O95        Co110   2.023   1_455  S
O96          C99   1.266       .  A
O96        Co113   1.902       .  S
O97          C98   1.259       .  A
O97        Co112   1.961       .  S
C98         C269   1.478       .  S
C99         C189   1.490       .  S
C100        C146   1.453       .  S
C101        C129   1.482       .  S
O102        C115   1.250       .  A
O102       Co110   1.951   1_455  S
O103        C116   1.267       .  A
O103       Co111   1.968   1_655  S
O104        C117   1.271       .  A
O104       Co112   2.035       .  S
O105        C118   1.295       .  A
O105       Co113   2.103       .  S
O106        C118   1.264       .  A
O106       Co111   1.894       .  S
O107        C117   1.252       .  A
O107       Co110   1.942       .  S
O108        C115   1.260       .  A
O108       Co113   2.008   1_545  S
O109        C116   1.280       .  A
O109       Co112   2.036   1_565  S
Co110       O114   2.020       .  S
Co111       O114   2.017   1_465  S
Co112       O114   2.035       .  S
Co113       O114   2.017   1_465  S
C115        C136   1.460       .  S
C116        C166   1.484       .  S
C117        C179   1.466       .  S
C118        C156   1.482       .  S
C119        C169   1.569       .  S
C119        C249   1.556       .  S
C119        C309   1.566       .  S
C119        C409   1.558       .  S
C120        C139   1.557       .  S
C120        C209   1.552       .  S
C120        C286   1.558       .  S
C120        C436   1.561       .  S
C121        C176   1.551       .  S
C121        C196   1.552       .  S
C121        C349   1.553       .  S
C121        C389   1.555       .  S
C122        C159   1.561       .  S
C122        C219   1.566       .  S
C122        C299   1.565       .  S
C122        C396   1.567       .  S
C123        C126   1.561       .  S
C123        C236   1.564       .  S
C123        C339   1.566       .  S
C123        C379   1.558       .  S
C124        C149   1.553       .  S
C124        C229   1.557       .  S
C124        C326   1.541       .  S
C124        C369   1.556       .  S
C125        C126   1.415       .  A
C125        C130   1.394       .  A
C125        H132   1.078       .  S
C126        C127   1.419       .  A
C127        C128   1.400       .  A
C127        F134   1.358       .  S
C128        C129   1.404       .  A
C128        H133   1.083       .  S
C129        C130   1.405       .  A
C130        F131   1.357       .  S
C135        C136   1.387       .  A
C135        C140   1.391       .  A
C135        H142   1.084       .  S
C136        C137   1.404       .  A
C137        C138   1.397       .  A
C137        F144   1.358       .  S
C138        C139   1.410       .  A
C138        H143   1.083       .  S
C139        C140   1.433       .  A
C140        F141   1.356       .  S
C145        C146   1.394       .  A
C145        C150   1.397       .  A
C145        H152   1.080       .  S
C146        C147   1.396       .  A
C147        C148   1.388       .  A
C147        F154   1.358       .  S
C148        C149   1.414       .  A
C148        H153   1.080       .  S
C149        C150   1.427       .  A
C150        F151   1.355       .  S
C155        C156   1.404       .  A
C155        C160   1.402       .  A
C155        H162   1.083       .  S
C156        C157   1.405       .  A
C157        C158   1.393       .  A
C157        F164   1.358       .  S
C158        C159   1.415       .  A
C158        H163   1.083       .  S
C159        C160   1.419       .  A
C160        F161   1.355       .  S
C165        C166   1.399       .  A
C165        C170   1.400       .  A
C165        H172   1.083       .  S
C166        C167   1.407       .  A
C167        C168   1.399       .  A
C167        F174   1.357       .  S
C168        C169   1.415       .  A
C168        H173   1.078       .  S
C169        C170   1.423       .  A
C170        F171   1.354       .  S
C175        C176   1.422       .  A
C175        C180   1.402       .  A
C175        H182   1.081       .  S
C176        C177   1.413       .  A
C177        C178   1.390       .  A
C177        F184   1.356       .  S
C178        C179   1.400       .  A
C178        H183   1.084       .  S
C179        C180   1.397       .  A
C180        F181   1.357       .  S
C185        C186   1.414       .  A
C185        C190   1.394       .  A
C185        H192   1.084       .  S
C186        C187   1.424       .  A
C187        C188   1.405       .  A
C187        F194   1.356       .  S
C188        C189   1.404       .  A
C188        H193   1.086       .  S
C189        C190   1.405       .  A
C190        F191   1.357       .  S
C195        C196   1.417       .  A
C195        C200   1.406       .  A
C195        H202   1.081       .  S
C196        C197   1.416       .  A
C197        C198   1.385       .  A
C197        F204   1.357       .  S
C198        C199   1.401       .  A
C198        H203   1.084       .  S
C199        C200   1.406       .  A
C200        F201   1.357       .  S
C205        C206   1.397       .  A
C205        C210   1.391       .  A
C205        H212   1.084       .  S
C206        C207   1.406       .  A
C207        C208   1.402       .  A
C207        F214   1.356       .  S
C208        C209   1.412       .  A
C208        H213   1.078       .  S
C209        C210   1.421       .  A
C210        F211   1.357       .  S
C215        C216   1.405       .  A
C215        C220   1.410       .  A
C215        H222   1.083       .  S
C216        C217   1.408       .  A
C217        C218   1.393       .  A
C217        F224   1.358       .  S
C218        C219   1.413       .  A
C218        H223   1.078       .  S
C219        C220   1.422       .  A
C220        F221   1.357       .  S
C225        C226   1.400       .  A
C225        C230   1.398       .  A
C225        H232   1.084       .  S
C226        C227   1.399       .  A
C227        C228   1.395       .  A
C227        F234   1.350       .  S
C228        C229   1.414       .  A
C228        H233   1.079       .  S
C229        C230   1.420       .  A
C230        F231   1.357       .  S
C235        C236   1.416       .  A
C235        C240   1.397       .  A
C235        H242   1.084       .  S
C236        C237   1.427       .  A
C237        C238   1.395       .  A
C237        F244   1.354       .  S
C238        C239   1.395       .  A
C238        H243   1.085       .  S
C239        C240   1.403       .  A
C240        F241   1.357       .  S
C245        C246   1.400       .  A
C245        C250   1.403       .  A
C245        H252   1.083       .  S
C246        C247   1.412       .  A
C247        C248   1.394       .  A
C247        F254   1.358       .  S
C248        C249   1.409       .  A
C248        H253   1.081       .  S
C249        C250   1.422       .  A
C250        F251   1.355       .  S
C255        C256   1.414       .  A
C255        C260   1.401       .  A
C255        H262   1.080       .  S
C256        C257   1.420       .  A
C257        C258   1.398       .  A
C257        F264   1.356       .  S
C258        C259   1.401       .  A
C258        H263   1.083       .  S
C259        C260   1.404       .  A
C260        F261   1.357       .  S
C265        C266   1.414       .  A
C265        C270   1.398       .  A
C265        H272   1.083       .  S
C266        C267   1.426       .  A
C267        C268   1.397       .  A
C267        F274   1.356       .  S
C268        C269   1.398       .  A
C268        H273   1.084       .  S
C269        C270   1.405       .  A
C270        F271   1.358       .  S
C275        C276   1.413       .  A
C275        C280   1.400       .  A
C275        H282   1.079       .  S
C276        C277   1.423       .  A
C277        C278   1.408       .  A
C277        F284   1.357       .  S
C278        C279   1.403       .  A
C278        H283   1.083       .  S
C279        C280   1.404       .  A
C280        F281   1.351       .  S
C285        C286   1.413       .  A
C285        C290   1.401       .  A
C285        H292   1.078       .  S
C286        C287   1.419       .  A
C287        C288   1.391       .  A
C287        F294   1.359       .  S
C288        C289   1.402       .  A
C288        H293   1.083       .  S
C289        C290   1.404       .  A
C290        F291   1.353       .  S
C295        C296   1.403       .  A
C295        C300   1.397       .  A
C295        H302   1.083       .  S
C296        C297   1.405       .  A
C297        C298   1.400       .  A
C297        F304   1.357       .  S
C298        C299   1.418       .  A
C298        H303   1.083       .  S
C299        C300   1.420       .  A
C300        F301   1.355       .  S
C305        C306   1.400       .  A
C305        C310   1.396       .  A
C305        H312   1.084       .  S
C306        C307   1.402       .  A
C307        C308   1.403       .  A
C307        F314   1.358       .  S
C308        C309   1.418       .  A
C308        H313   1.083       .  S
C309        C310   1.423       .  A
C310        F311   1.356       .  S
C315        C316   1.402       .  A
C315        C320   1.401       .  A
C315        H322   1.084       .  S
C316        C317   1.407       .  A
C317        C318   1.404       .  A
C317        F324   1.359       .  S
C318        C319   1.420       .  A
C318        H323   1.081       .  S
C319        C320   1.415       .  A
C320        F321   1.356       .  S
C325        C326   1.405       .  A
C325        C330   1.378       .  A
C325        H332   1.080       .  S
C326        C327   1.419       .  A
C327        C328   1.400       .  A
C327        F334   1.357       .  S
C328        C329   1.400       .  A
C328        H333   1.083       .  S
C329        C330   1.410       .  A
C330        F331   1.359       .  S
C335        C336   1.398       .  A
C335        C340   1.399       .  A
C335        H342   1.083       .  S
C336        C337   1.401       .  A
C337        C338   1.397       .  A
C337        F344   1.359       .  S
C338        C339   1.420       .  A
C338        H343   1.078       .  S
C339        C340   1.420       .  A
C340        F341   1.357       .  S
C345        C346   1.401       .  A
C345        C350   1.386       .  A
C345        H352   1.084       .  S
C346        C347   1.401       .  A
C347        C348   1.405       .  A
C347        F354   1.354       .  S
C348        C349   1.419       .  A
C348        H353   1.081       .  S
C349        C350   1.415       .  A
C350        F351   1.357       .  S
C355        C356   1.399       .  A
C355        C360   1.408       .  A
C355        H362   1.083       .  S
C356        C357   1.403       .  A
C357        C358   1.394       .  A
C357        F364   1.358       .  S
C358        C359   1.415       .  A
C358        H363   1.080       .  S
C359        C360   1.425       .  A
C360        F361   1.355       .  S
C365        C366   1.400       .  A
C365        C370   1.391       .  A
C365        H372   1.083       .  S
C366        C367   1.405       .  A
C367        C368   1.397       .  A
C367        F374   1.354       .  S
C368        C369   1.413       .  A
C368        H373   1.079       .  S
C369        C370   1.419       .  A
C370        F371   1.357       .  S
C375        C376   1.403       .  A
C375        C380   1.401       .  A
C375        H382   1.083       .  S
C376        C377   1.409       .  A
C377        C378   1.395       .  A
C377        F384   1.358       .  S
C378        C379   1.412       .  A
C378        H383   1.078       .  S
C379        C380   1.421       .  A
C380        F381   1.357       .  S
C385        C386   1.402       .  A
C385        C390   1.395       .  A
C385        H392   1.084       .  S
C386        C387   1.396       .  A
C387        C388   1.402       .  A
C387        F394   1.357       .  S
C388        C389   1.423       .  A
C388        H393   1.081       .  S
C389        C390   1.414       .  A
C390        F391   1.357       .  S
C395        C396   1.417       .  A
C395        C400   1.393       .  A
C395        H402   1.079       .  S
C396        C397   1.421       .  A
C397        C398   1.409       .  A
C397        F404   1.357       .  S
C398        C399   1.405       .  A
C398        H403   1.083       .  S
C399        C400   1.402       .  A
C400        F401   1.358       .  S
C405        C406   1.397       .  A
C405        C410   1.394       .  A
C405        H412   1.084       .  S
C406        C407   1.402       .  A
C407        C408   1.400       .  A
C407        F414   1.357       .  S
C408        C409   1.416       .  A
C408        H413   1.083       .  S
C409        C410   1.424       .  A
C410        F411   1.356       .  S
C415        C416   1.400       .  A
C415        C420   1.398       .  A
C415        H422   1.083       .  S
C416        C417   1.413       .  A
C417        C418   1.404       .  A
C417        F424   1.358       .  S
C418        C419   1.411       .  A
C418        H423   1.080       .  S
C419        C420   1.421       .  A
C420        F421   1.357       .  S
C425        C426   1.394       .  A
C425        C430   1.399       .  A
C425        H432   1.081       .  S
C426        C427   1.400       .  A
C427        C428   1.391       .  A
C427        F434   1.358       .  S
C428        C429   1.411       .  A
C428        H433   1.082       .  S
C429        C430   1.427       .  A
C430        F431   1.356       .  S
C435        C436   1.428       .  A
C435        C440   1.395       .  A
C435        H442   1.081       .  S
C436        C437   1.413       .  A
C437        C438   1.394       .  A
C437        F444   1.355       .  S
C438        C439   1.400       .  A
C438        H443   1.085       .  S
C439        C440   1.390       .  A
C440        F441   1.358       .  S
O445        C453   1.253       .  A
O445       Co465   1.944       .  S
O446        C454   1.264       .  A
O446       Co466   1.886       .  S
O447        C455   1.280       .  A
O447       Co467   2.034       .  S
O448        C456   1.264       .  A
O448       Co468   2.031       .  S
O449        C455   1.267       .  A
O449       Co466   1.976       .  S
O450        C456   1.246       .  A
O450       Co465   1.948       .  S
O451        C454   1.296       .  A
O451       Co468   2.101       .  S
O452        C453   1.270       .  A
O452       Co467   2.026       .  S
C453        C883   1.459       .  S
C454        C850   1.471       .  S
C455        C843   1.484       .  S
C456        C830   1.470       .  S
O457        C470   1.282       .  A
O457       Co465   2.041       .  S
O458        C471   1.261       .  A
O458       Co466   2.018       .  S
O459        C472   1.258       .  A
O459       Co467   1.955       .  S
O460        C473   1.267       .  A
O460       Co468   1.887       .  S
O461        C473   1.295       .  A
O461       Co466   2.099       .  S
O462        C472   1.272       .  A
O462       Co465   2.028       .  S
O463        C470   1.264       .  A
O463       Co468   1.966       .  S
O464        C471   1.249       .  A
O464       Co467   1.953       .  S
Co465       O469   2.019       .  S
Co466       O469   2.012       .  S
Co467       O469   2.027       .  S
Co468       O469   2.025       .  S
C470        C860   1.492       .  S
C471        C870   1.462       .  S
C472        C820   1.485       .  S
C473        C810   1.478       .  S
O474        C482   1.265       .  A
O474       Co494   1.944       .  S
O475        C483   1.304       .  A
O475       Co495   2.084       .  S
O476        C484   1.264       .  A
O476       Co496   2.017       .  S
O477        C485   1.267       .  A
O477       Co497   1.997   1_655  S
O478        C484   1.248       .  A
O478       Co495   1.941       .  S
O479        C485   1.259       .  A
O479       Co494   1.975       .  S
O480        C483   1.278       .  A
O480       Co497   1.896       .  S
O481        C482   1.283       .  A
O481       Co496   2.041   1_655  S
C482        C790   1.476       .  S
C483        C740   1.486       .  S
C484        C733   1.482       .  S
C485        C750   1.475       .  S
O486        C499   1.257       .  A
O487        C500   1.301       .  A
O488        C501   1.264       .  A
O489        C502   1.267       .  A
O490        C502   1.247       .  A
O491        C501   1.255       .  A
O492        C499   1.275       .  A
O493        C500   1.278       .  A
Co494       O498   2.006       .  S
Co495       O498   2.093   1_455  S
Co496       O498   1.944   1_455  S
Co497       O498   1.968   1_455  S
C499        C773   1.469       .  S
C500        C780   1.472       .  S
C501        C800   1.477       .  S
C502        C760   1.485       .  S
C503        C710   1.560       .  S
C503        C720   1.571       .  S
C503        C803   1.565       .  S
C503        C863   1.558       .  S
O504        C512   1.252       .  A
O504       Co524   1.968       .  S
O505        C513   1.264       .  A
O506        C514   1.298       .  A
O506       Co526   2.114       .  S
O507        C515   1.272       .  A
O507       Co527   2.031       .  S
O508        C514   1.266       .  A
O508       Co525   1.894       .  S
O509        C515   1.257       .  A
O510        C513   1.282       .  A
O510       Co527   2.055   1_565  S
O511        C512   1.265       .  A
O511       Co526   2.013   1_545  S
C512        C683   1.471       .  S
C513        C660   1.493       .  S
C514        C703   1.481       .  S
C515        C650   1.474       .  S
O516        C529   1.273       .  A
O517        C530   1.291       .  A
O517       Co525   2.087       .  S
O518        C531   1.273       .  A
O518       Co526   1.978   1_545  S
O519        C532   1.249       .  A
O519       Co527   1.958   1_565  S
O520        C532   1.265       .  A
O521        C531   1.281       .  A
O521       Co524   2.041       .  S
O522        C529   1.256       .  A
O522       Co527   1.943       .  S
O523        C530   1.268       .  A
O523       Co526   1.905       .  S
Co524       O528   2.031   1_556  S
Co525       O528   2.013   1_566  S
Co526       O528   2.010   1_566  S
C529        C643   1.480       .  S
C530        C670   1.474       .  S
C531        C723   1.495       .  S
C532        C690   1.486       .  S
C533        C630   1.564       .  S
C533        C700   1.558       .  S
C533        C763   1.563       .  S
C533        C873   1.553       .  S
O534        C542   1.273       .  A
O534       Co554   2.027       .  S
O535        C543   1.295       .  A
O535       Co555   2.102       .  S
O536        C544   1.250       .  A
O536       Co556   1.959   1_565  S
O537        C545   1.270       .  A
O537       Co557   1.970   1_545  S
O538        C544   1.257       .  A
O538       Co555   2.000   1_655  S
O539        C545   1.278       .  A
O539       Co554   2.022   1_455  S
O540        C543   1.266       .  A
O540       Co557   1.902       .  S
O541        C542   1.259       .  A
O541       Co556   1.960       .  S
C542        C713   1.479       .  S
C543        C633   1.490       .  S
C544        C590   1.453       .  S
C545        C573   1.482       .  S
O546        C559   1.250       .  A
O546       Co554   1.951   1_455  S
O547        C560   1.267       .  A
O547       Co555   1.968   1_655  S
O548        C561   1.271       .  A
O548       Co556   2.035       .  S
O549        C562   1.295       .  A
O549       Co557   2.104       .  S
O550        C562   1.264       .  A
O550       Co555   1.894       .  S
O551        C561   1.252       .  A
O551       Co554   1.942       .  S
O552        C559   1.260       .  A
O552       Co557   2.008   1_545  S
O553        C560   1.280       .  A
O553       Co556   2.036   1_565  S
Co554       O558   2.020       .  S
Co555       O558   2.017   1_465  S
Co556       O558   2.035       .  S
Co557       O558   2.017   1_465  S
C559        C580   1.460       .  S
C560        C610   1.484       .  S
C561        C623   1.466       .  S
C562        C600   1.482       .  S
C563        C613   1.569       .  S
C563        C693   1.556       .  S
C563        C753   1.566       .  S
C563        C853   1.558       .  S
C564        C583   1.557       .  S
C564        C653   1.552       .  S
C564        C730   1.558       .  S
C564        C880   1.560       .  S
C565        C620   1.551       .  S
C565        C640   1.552       .  S
C565        C793   1.552       .  S
C565        C833   1.555       .  S
C566        C603   1.561       .  S
C566        C663   1.566       .  S
C566        C743   1.566       .  S
C566        C840   1.567       .  S
C567        C570   1.561       .  S
C567        C680   1.564       .  S
C567        C783   1.566       .  S
C567        C823   1.558       .  S
C568        C593   1.553       .  S
C568        C673   1.557       .  S
C568        C770   1.541       .  S
C568        C813   1.556       .  S
C569        C570   1.415       .  A
C569        C574   1.394       .  A
C569        H576   1.078       .  S
C570        C571   1.419       .  A
C571        C572   1.400       .  A
C571        F578   1.358       .  S
C572        C573   1.404       .  A
C572        H577   1.083       .  S
C573        C574   1.404       .  A
C574        F575   1.357       .  S
C579        C580   1.387       .  A
C579        C584   1.391       .  A
C579        H586   1.084       .  S
C580        C581   1.404       .  A
C581        C582   1.397       .  A
C581        F588   1.358       .  S
C582        C583   1.410       .  A
C582        H587   1.083       .  S
C583        C584   1.433       .  A
C584        F585   1.356       .  S
C589        C590   1.393       .  A
C589        C594   1.397       .  A
C589        H596   1.080       .  S
C590        C591   1.396       .  A
C591        C592   1.388       .  A
C591        F598   1.358       .  S
C592        C593   1.414       .  A
C592        H597   1.080       .  S
C593        C594   1.427       .  A
C594        F595   1.355       .  S
C599        C600   1.404       .  A
C599        C604   1.402       .  A
C599        H606   1.083       .  S
C600        C601   1.405       .  A
C601        C602   1.393       .  A
C601        F608   1.358       .  S
C602        C603   1.415       .  A
C602        H607   1.083       .  S
C603        C604   1.419       .  A
C604        F605   1.355       .  S
C609        C610   1.399       .  A
C609        C614   1.400       .  A
C609        H616   1.083       .  S
C610        C611   1.406       .  A
C611        C612   1.399       .  A
C611        F618   1.357       .  S
C612        C613   1.415       .  A
C612        H617   1.078       .  S
C613        C614   1.423       .  A
C614        F615   1.354       .  S
C619        C620   1.422       .  A
C619        C624   1.402       .  A
C619        H626   1.081       .  S
C620        C621   1.413       .  A
C621        C622   1.390       .  A
C621        F628   1.356       .  S
C622        C623   1.400       .  A
C622        H627   1.084       .  S
C623        C624   1.397       .  A
C624        F625   1.357       .  S
C629        C630   1.414       .  A
C629        C634   1.394       .  A
C629        H636   1.084       .  S
C630        C631   1.424       .  A
C631        C632   1.405       .  A
C631        F638   1.356       .  S
C632        C633   1.404       .  A
C632        H637   1.086       .  S
C633        C634   1.405       .  A
C634        F635   1.357       .  S
C639        C640   1.417       .  A
C639        C644   1.405       .  A
C639        H646   1.081       .  S
C640        C641   1.416       .  A
C641        C642   1.385       .  A
C641        F648   1.357       .  S
C642        C643   1.401       .  A
C642        H647   1.084       .  S
C643        C644   1.406       .  A
C644        F645   1.357       .  S
C649        C650   1.397       .  A
C649        C654   1.391       .  A
C649        H656   1.084       .  S
C650        C651   1.406       .  A
C651        C652   1.402       .  A
C651        F658   1.356       .  S
C652        C653   1.412       .  A
C652        H657   1.078       .  S
C653        C654   1.421       .  A
C654        F655   1.357       .  S
C659        C660   1.405       .  A
C659        C664   1.410       .  A
C659        H666   1.083       .  S
C660        C661   1.408       .  A
C661        C662   1.393       .  A
C661        F668   1.358       .  S
C662        C663   1.413       .  A
C662        H667   1.078       .  S
C663        C664   1.422       .  A
C664        F665   1.357       .  S
C669        C670   1.400       .  A
C669        C674   1.398       .  A
C669        H676   1.084       .  S
C670        C671   1.399       .  A
C671        C672   1.395       .  A
C671        F678   1.350       .  S
C672        C673   1.414       .  A
C672        H677   1.079       .  S
C673        C674   1.420       .  A
C674        F675   1.357       .  S
C679        C680   1.416       .  A
C679        C684   1.396       .  A
C679        H686   1.084       .  S
C680        C681   1.427       .  A
C681        C682   1.395       .  A
C681        F688   1.354       .  S
C682        C683   1.395       .  A
C682        H687   1.084       .  S
C683        C684   1.403       .  A
C684        F685   1.357       .  S
C689        C690   1.400       .  A
C689        C694   1.403       .  A
C689        H696   1.083       .  S
C690        C691   1.412       .  A
C691        C692   1.394       .  A
C691        F698   1.358       .  S
C692        C693   1.409       .  A
C692        H697   1.081       .  S
C693        C694   1.422       .  A
C694        F695   1.355       .  S
C699        C700   1.414       .  A
C699        C704   1.401       .  A
C699        H706   1.080       .  S
C700        C701   1.419       .  A
C701        C702   1.397       .  A
C701        F708   1.356       .  S
C702        C703   1.401       .  A
C702        H707   1.083       .  S
C703        C704   1.404       .  A
C704        F705   1.357       .  S
C709        C710   1.414       .  A
C709        C714   1.398       .  A
C709        H716   1.083       .  S
C710        C711   1.426       .  A
C711        C712   1.397       .  A
C711        F718   1.356       .  S
C712        C713   1.398       .  A
C712        H717   1.084       .  S
C713        C714   1.405       .  A
C714        F715   1.358       .  S
C719        C720   1.413       .  A
C719        C724   1.400       .  A
C719        H726   1.079       .  S
C720        C721   1.423       .  A
C721        C722   1.408       .  A
C721        F728   1.357       .  S
C722        C723   1.403       .  A
C722        H727   1.083       .  S
C723        C724   1.404       .  A
C724        F725   1.351       .  S
C729        C730   1.413       .  A
C729        C734   1.401       .  A
C729        H736   1.078       .  S
C730        C731   1.419       .  A
C731        C732   1.391       .  A
C731        F738   1.359       .  S
C732        C733   1.402       .  A
C732        H737   1.083       .  S
C733        C734   1.404       .  A
C734        F735   1.353       .  S
C739        C740   1.403       .  A
C739        C744   1.397       .  A
C739        H746   1.083       .  S
C740        C741   1.405       .  A
C741        C742   1.400       .  A
C741        F748   1.357       .  S
C742        C743   1.418       .  A
C742        H747   1.083       .  S
C743        C744   1.420       .  A
C744        F745   1.355       .  S
C749        C750   1.400       .  A
C749        C754   1.396       .  A
C749        H756   1.084       .  S
C750        C751   1.402       .  A
C751        C752   1.403       .  A
C751        F758   1.358       .  S
C752        C753   1.418       .  A
C752        H757   1.083       .  S
C753        C754   1.423       .  A
C754        F755   1.356       .  S
C759        C760   1.402       .  A
C759        C764   1.401       .  A
C759        H766   1.084       .  S
C760        C761   1.407       .  A
C761        C762   1.404       .  A
C761        F768   1.359       .  S
C762        C763   1.420       .  A
C762        H767   1.081       .  S
C763        C764   1.415       .  A
C764        F765   1.356       .  S
C769        C770   1.405       .  A
C769        C774   1.378       .  A
C769        H776   1.080       .  S
C770        C771   1.419       .  A
C771        C772   1.400       .  A
C771        F778   1.357       .  S
C772        C773   1.400       .  A
C772        H777   1.083       .  S
C773        C774   1.410       .  A
C774        F775   1.359       .  S
C779        C780   1.398       .  A
C779        C784   1.399       .  A
C779        H786   1.083       .  S
C780        C781   1.401       .  A
C781        C782   1.396       .  A
C781        F788   1.359       .  S
C782        C783   1.420       .  A
C782        H787   1.078       .  S
C783        C784   1.420       .  A
C784        F785   1.357       .  S
C789        C790   1.401       .  A
C789        C794   1.386       .  A
C789        H796   1.084       .  S
C790        C791   1.401       .  A
C791        C792   1.405       .  A
C791        F798   1.354       .  S
C792        C793   1.419       .  A
C792        H797   1.081       .  S
C793        C794   1.415       .  A
C794        F795   1.357       .  S
C799        C800   1.399       .  A
C799        C804   1.408       .  A
C799        H806   1.083       .  S
C800        C801   1.403       .  A
C801        C802   1.395       .  A
C801        F808   1.358       .  S
C802        C803   1.415       .  A
C802        H807   1.080       .  S
C803        C804   1.425       .  A
C804        F805   1.355       .  S
C809        C810   1.399       .  A
C809        C814   1.391       .  A
C809        H816   1.083       .  S
C810        C811   1.405       .  A
C811        C812   1.396       .  A
C811        F818   1.354       .  S
C812        C813   1.413       .  A
C812        H817   1.079       .  S
C813        C814   1.420       .  A
C814        F815   1.357       .  S
C819        C820   1.403       .  A
C819        C824   1.401       .  A
C819        H826   1.083       .  S
C820        C821   1.409       .  A
C821        C822   1.395       .  A
C821        F828   1.358       .  S
C822        C823   1.412       .  A
C822        H827   1.078       .  S
C823        C824   1.421       .  A
C824        F825   1.357       .  S
C829        C830   1.402       .  A
C829        C834   1.395       .  A
C829        H836   1.084       .  S
C830        C831   1.396       .  A
C831        C832   1.401       .  A
C831        F838   1.357       .  S
C832        C833   1.423       .  A
C832        H837   1.081       .  S
C833        C834   1.414       .  A
C834        F835   1.357       .  S
C839        C840   1.417       .  A
C839        C844   1.393       .  A
C839        H846   1.079       .  S
C840        C841   1.420       .  A
C841        C842   1.409       .  A
C841        F848   1.357       .  S
C842        C843   1.405       .  A
C842        H847   1.083       .  S
C843        C844   1.402       .  A
C844        F845   1.358       .  S
C849        C850   1.397       .  A
C849        C854   1.394       .  A
C849        H856   1.084       .  S
C850        C851   1.402       .  A
C851        C852   1.400       .  A
C851        F858   1.357       .  S
C852        C853   1.416       .  A
C852        H857   1.083       .  S
C853        C854   1.424       .  A
C854        F855   1.356       .  S
C859        C860   1.400       .  A
C859        C864   1.398       .  A
C859        H866   1.083       .  S
C860        C861   1.413       .  A
C861        C862   1.405       .  A
C861        F868   1.358       .  S
C862        C863   1.411       .  A
C862        H867   1.080       .  S
C863        C864   1.421       .  A
C864        F865   1.356       .  S
C869        C870   1.394       .  A
C869        C874   1.399       .  A
C869        H876   1.081       .  S
C870        C871   1.400       .  A
C871        C872   1.391       .  A
C871        F878   1.358       .  S
C872        C873   1.411       .  A
C872        H877   1.082       .  S
C873        C874   1.427       .  A
C874        F875   1.356       .  S
C879        C880   1.428       .  A
C879        C884   1.395       .  A
C879        H886   1.081       .  S
C880        C881   1.413       .  A
C881        C882   1.394       .  A
C881        F888   1.355       .  S
C882        C883   1.400       .  A
C882        H887   1.085       .  S
C883        C884   1.390       .  A
C884        F885   1.358       .  S
