geometry optimzed in LAMMPS
_audit_creation_date              2020-11-30 
_audit_creation_method            'lammps2cif' 
_symmetry_space_group_name_H-M    'P1' 
_symmetry_Int_Tables_number       1 
_symmetry_cell_setting            triclinic 
loop_ 
_symmetry_equiv_pos_as_xyz 
  x,y,z 
_cell_length_a                    37.36114833 
_cell_length_b                    35.561888634858114 
_cell_length_c                    25.17470950452613 
_cell_angle_alpha                 86.31297027058692 
_cell_angle_beta                  90.1904712214493 
_cell_angle_gamma                 85.92068051467486 
loop_ 
_atom_site_label 
_atom_site_type_symbol 
_atom_site_fract_x 
_atom_site_fract_y 
_atom_site_fract_z 
_atom_site_charge 
C1          C  0.00295738  0.41525647  0.19950881     0.85800
C2          C  0.98927141  0.41513759  0.14180758    -0.54400
C3          C  0.96922342  0.38569609  0.13223302     0.08800
C4          C  0.96582306  0.35781407  0.18087645     0.19700
C5          C  0.96923074  0.41213997  0.23423203    -0.55100
C6          C  0.94971426  0.38217300  0.22409780     0.08900
C7          C  0.02394408  0.37611545  0.20876316    -0.54700
C8          C  0.00450964  0.34619684  0.19872584     0.09400
H9          H  0.99441429  0.43706495  0.11133249     0.14000
H10         H  0.95028188  0.33320147  0.17357238    -0.00300
H11         H  0.96138592  0.43199360  0.26382949     0.14300
H12         H  0.05217427  0.37152426  0.21856459     0.14000
C13         C  0.51063949  0.20141057  0.70509825     0.85800
C14         C  0.49017544  0.16512116  0.71241607    -0.54400
C15         C  0.50878935  0.13321231  0.69750707     0.08800
C16         C  0.54643735  0.13996792  0.67646832     0.19700
C17         C  0.54618574  0.19157105  0.73592436    -0.55100
C18         C  0.56493273  0.15942469  0.72079636     0.08900
C19         C  0.52147044  0.20260176  0.64588737    -0.54700
C20         C  0.54043639  0.17081920  0.63109643     0.09400
H21         H  0.46279166  0.16388474  0.72579637     0.14000
H22         H  0.56161899  0.11390624  0.66443492    -0.00300
H23         H  0.55541365  0.20818094  0.76730252     0.14300
H24         H  0.51599788  0.22725659  0.61869434     0.14000
O25         O  0.60925713  0.10495325  0.42611388    -0.81500
O26         O  0.66404233  0.09017368  0.18909885    -0.66200
O27         O  0.65389246  0.11048214  0.33576005    -1.12800
C28         C  0.58460239  0.21992181  0.26236112     1.05400
O29         O  0.67856814  0.14839063  0.16917602    -0.79400
O30         O  0.67316841  0.20443576  0.23749057    -0.67000
Ni31       Ni  0.63812283  0.07116708  0.38419716     1.34900
C32         C  0.67751729  0.20644337  0.28720122     0.84100
O33         O  0.69268903  0.05616702  0.27857389    -0.80000
O34         O  0.66661382  0.03168304  0.35144166    -0.90200
C35         C  0.67608062  0.11466897  0.15647606     0.83700
O36         O  0.59686445  0.06243771  0.34320759    -0.68500
O37         O  0.60143524  0.21470413  0.21901530    -0.87700
C38         C  0.59608898  0.05515434  0.29451759     0.84500
C39         C  0.68934297  0.02962959  0.31403954     1.06100
H40         H  0.60378810  0.13372158  0.23763542     0.37900
O41         O  0.62649367  0.14194684  0.24912076    -1.10400
O42         O  0.66048716  0.18711594  0.32187690    -0.67000
Ni43       Ni  0.62130067  0.15436250  0.32115082     1.26300
O44         O  0.61998724  0.06551937  0.26168693    -0.67300
O45         O  0.58899773  0.19773119  0.30410590    -0.79600
C46         C  0.60630239  0.14039086  0.43071625     0.83900
O47         O  0.61534464  0.16414406  0.39439853    -0.66700
Ni48       Ni  0.63955044  0.17992023  0.19676714     1.27400
Ni49       Ni  0.65922013  0.09870387  0.26281242     1.26100
H50         H  0.67654052  0.11797186  0.34868161     0.38400
C51         C  0.71367796  0.09617153  0.93526617     0.85800
C52         C  0.73319045  0.13077639  0.91489748    -0.54400
C53         C  0.74170064  0.13158313  0.86234795     0.08800
C54         C  0.72909503  0.09777472  0.83366929     0.19700
C55         C  0.68063767  0.09801266  0.89811461    -0.55100
C56         C  0.68837668  0.09887276  0.84510050     0.08900
C57         C  0.73720250  0.06180867  0.91929405    -0.54700
C58         C  0.74556498  0.06199881  0.86630670     0.09400
H59         H  0.73909182  0.15352383  0.93962456     0.14000
H60         H  0.73572088  0.09928747  0.79070040    -0.00300
H61         H  0.65329369  0.10331144  0.91146448     0.14300
H62         H  0.74597903  0.03884072  0.94793503     0.14000
O63         O  0.83048065  0.37621538  0.67266874    -0.81500
O64         O  0.90293082  0.38277626  0.89051438    -0.66200
O65         O  0.88498539  0.36152871  0.74773360    -1.12800
C66         C  0.82069407  0.26094573  0.81497149     1.05400
O67         O  0.89829049  0.32517551  0.92961194    -0.79400
O68         O  0.91329465  0.28120531  0.84703285    -0.67000
Ni69       Ni  0.87105653  0.40164012  0.69581774     1.34900
C70         C  0.91354386  0.27137015  0.79940072     0.84100
O71         O  0.92713979  0.40984879  0.79852518    -0.80000
O72         O  0.91080939  0.43019044  0.71464740    -0.90200
C73         C  0.90696092  0.35901174  0.93008329     0.83700
O74         O  0.83949647  0.43216713  0.73789421    -0.68500
O75         O  0.84472055  0.25905888  0.85102268    -0.87700
C76         C  0.83760687  0.43557259  0.78771054     0.84500
C77         C  0.92974284  0.43178704  0.75669126     1.06100
H78         H  0.83622198  0.34964812  0.84810128     0.37900
O79         O  0.85803947  0.33699772  0.83583067    -1.10400
O80         O  0.88951672  0.28436091  0.76541082    -0.67000
Ni81       Ni  0.85114452  0.32471422  0.76383284     1.26300
O82         O  0.85613070  0.41380098  0.82107254    -0.67300
O83         O  0.81620439  0.28891333  0.78113044    -0.79600
C84         C  0.83299104  0.34244378  0.65884590     0.83900
O85         O  0.84515461  0.31568868  0.69084948    -0.66700
Ni86       Ni  0.87145380  0.29522986  0.88559433     1.27400
Ni87       Ni  0.89328855  0.37335990  0.81861065     1.26100
H88         H  0.90682325  0.34899114  0.73502325     0.38400
C89         C  0.79971213  0.34444174  0.43488651     0.85800
C90         C  0.77512391  0.31564036  0.41608125    -0.54400
C91         C  0.76610996  0.31995285  0.36346040     0.08800
C92         C  0.78371228  0.35335432  0.33325253     0.19700
C93         C  0.83244960  0.34157946  0.39816844    -0.55100
C94         C  0.82439168  0.34631448  0.34518383     0.08900
C95         C  0.78112816  0.38339810  0.41749399    -0.54700
C96         C  0.77266468  0.38834684  0.36448288     0.09400
H97         H  0.76588778  0.29308683  0.44263151     0.14000
H98         H  0.77699427  0.35707063  0.29014658    -0.00300
H99         H  0.86004607  0.34033009  0.41194369     0.14300
H100        H  0.77553358  0.40547202  0.44478857     0.14000
C101        C  0.50273081  0.36554090  0.28071922     0.85800
C102        C  0.48459972  0.37227300  0.33454166    -0.54400
C103        C  0.46529837  0.40614560  0.33603135     0.08800
C104        C  0.46558579  0.43077138  0.28329560     0.19700
C105        C  0.47245857  0.37154197  0.23960433    -0.55100
C106        C  0.45283980  0.40525845  0.24038934     0.08900
C107        C  0.52515157  0.40009463  0.27150469    -0.54700
C108        C  0.50608305  0.43463133  0.27225996     0.09400
H109        H  0.48806878  0.35347152  0.37006021     0.14000
H110        H  0.44886049  0.45770520  0.28393660    -0.00300
H111        H  0.46586798  0.34967598  0.21372197     0.14300
H112        H  0.55409316  0.39723020  0.26716891     0.14000
C113        C  0.01422564  0.06743367  0.77426614     0.85800
C114        C  0.99052414  0.10466352  0.76744778    -0.54400
C115        C  0.00703976  0.13628399  0.77916595     0.08800
C116        C  0.04682334  0.12770295  0.79489901     0.19700
C117        C  0.04653284  0.07500534  0.73743731    -0.55100
C118        C  0.06341502  0.10665191  0.74847710     0.08900
C119        C  0.03057079  0.06628978  0.83041372    -0.54700
C120        C  0.04662714  0.09792167  0.84215394     0.09400
H121        H  0.96278044  0.10575357  0.75430567     0.14000
H122        H  0.06114602  0.15302976  0.80276366    -0.00300
H123        H  0.05568642  0.05783032  0.70553501     0.14300
H124        H  0.03001367  0.04176739  0.85834251     0.14000
O125        O  0.11714057  0.16006942  0.04603013    -0.81500
O126        O  0.16557741  0.17092478  0.28856360    -0.66200
O127        O  0.15180461  0.14962988  0.14291238    -1.12800
C128        C  0.08797239  0.05029007  0.21622143     1.05400
O129        O  0.18145584  0.11062203  0.31042229    -0.79400
O130        O  0.18373198  0.06409597  0.22725658    -0.67000
Ni131      Ni  0.13612166  0.19170819  0.09564029     1.34900
C132        C  0.17795082  0.05688678  0.17927839     0.84100
O133        O  0.19197718  0.19983385  0.19577324    -0.80000
O134        O  0.15518100  0.22942293  0.13627139    -0.90200
C135        C  0.17678999  0.14479260  0.32270501     0.83700
O136        O  0.09241343  0.19631791  0.13396430    -0.68500
O137        O  0.11395464  0.04795768  0.24966436    -0.87700
C138        C  0.09169559  0.20800460  0.18078587     0.84500
C139        C  0.18385813  0.22796383  0.16334629     1.06100
H140        H  0.10645315  0.13358111  0.24915437     0.37900
O141        O  0.12774019  0.12319179  0.23207128    -1.10400
O142        O  0.15150495  0.07264591  0.15245397    -0.67000
Ni143      Ni  0.11607151  0.11397473  0.16075645     1.26300
O144        O  0.11770006  0.19929252  0.21394999    -0.67300
O145        O  0.08197184  0.07850397  0.18270759    -0.79600
C146        C  0.10542659  0.12753158  0.04651392     0.83900
O147        O  0.10319009  0.10629664  0.08867808    -0.66700
Ni148      Ni  0.14756029  0.08117322  0.27638522     1.27400
Ni149      Ni  0.15914232  0.16186953  0.21502274     1.26100
H150        H  0.17345243  0.13720347  0.12949053     0.38400
C151        C  0.23579960  0.20302601  0.61588891     0.85800
C152        C  0.20163339  0.19586002  0.64847476    -0.54400
C153        C  0.18551313  0.16407041  0.63589328     0.08800
C154        C  0.20465312  0.14251571  0.59144408     0.19700
C155        C  0.25906856  0.16575460  0.62541914    -0.55100
C156        C  0.24333813  0.13442594  0.61159413     0.08900
C157        C  0.22246278  0.20390601  0.55785279    -0.54700
C158        C  0.20724923  0.17200864  0.54378160     0.09400
H159        H  0.19097556  0.21322758  0.67929442     0.14000
H160        H  0.19241423  0.11616282  0.58255335    -0.00300
H161        H  0.28577179  0.16409234  0.64299943     0.14300
H162        H  0.22498688  0.22820605  0.53013365     0.14000
O163        O  0.42306523  0.39367313  0.57309003    -0.81500
O164        O  0.34530742  0.38127244  0.78703445    -0.66200
O165        O  0.36448098  0.40441131  0.63839291    -1.12800
C166        C  0.42670704  0.50415894  0.70388221     1.05400
O167        O  0.32968102  0.44165910  0.79482847    -0.79400
O168        O  0.33447085  0.49596771  0.71750326    -0.67000
Ni169      Ni  0.38245011  0.36688910  0.59323897     1.34900
C170        C  0.33393001  0.50016471  0.66712784     0.84100
O171        O  0.32541066  0.34899850  0.69473930    -0.80000
O172        O  0.34304614  0.33790153  0.61119833    -0.90200
C173        C  0.33365455  0.40811436  0.81524910     0.83700
O174        O  0.41274364  0.33686894  0.64237987    -0.68500
O175        O  0.40524245  0.50156196  0.74311913    -0.87700
C176        C  0.41608020  0.33439341  0.69252161     0.84500
C177        C  0.32381758  0.33102085  0.65197560     1.06100
H178        H  0.40750456  0.42028103  0.73955206     0.37900
O179        O  0.38530521  0.43092738  0.72321003    -1.10400
O180        O  0.35582995  0.48200447  0.63777801    -0.67000
Ni181      Ni  0.39536511  0.44406434  0.64988902     1.26300
O182        O  0.39635476  0.35405584  0.72312785    -0.67300
O183        O  0.42645976  0.48275132  0.66508920    -0.79600
C184        C  0.41866469  0.42598600  0.54941904     0.83900
O185        O  0.40531976  0.45323747  0.57482789    -0.66700
Ni186      Ni  0.36787694  0.47001318  0.76681378     1.27400
Ni187      Ni  0.35506724  0.39020916  0.71152955     1.26100
H188        H  0.34226560  0.41547773  0.62256554     0.38400
C189        C  0.26852546  0.35884299  0.11739976     0.85800
C190        C  0.30356403  0.36452588  0.14710799    -0.54400
C191        C  0.31908429  0.39695515  0.13065649     0.08800
C192        C  0.29822716  0.42084872  0.08531318     0.13300
C193        C  0.24514840  0.39525328  0.12485120    -0.55100
C194        C  0.26005295  0.42785482  0.10848729     0.08900
C195        C  0.27925985  0.36069641  0.05869004    -0.54700
C196        C  0.29414890  0.39300309  0.04032978     0.09400
H197        H  0.31546565  0.34549703  0.17865511     0.14000
H198        H  0.31045308  0.44740971  0.07259740    -0.00300
H199        H  0.21897570  0.39512503  0.14356891     0.14300
H200        H  0.27548042  0.33743774  0.03381084     0.14000
C201        C  0.34384730  0.41931158  0.91055337    -0.27000
C202        C  0.32428116  0.40183574  0.87243877    -0.15000
C203        C  0.29374204  0.38342317  0.88888992     0.35600
C204        C  0.28403927  0.38204085  0.94317823    -0.26400
C205        C  0.30431698  0.39843025  0.98222354    -0.15700
C206        C  0.33448892  0.41749940  0.96488531     0.36700
N207        N  0.35634266  0.43450273  0.00202183    -0.89900
H208        H  0.36684621  0.43448342  0.89799885     0.17800
H209        H  0.25999902  0.36843028  0.95475276     0.17800
N210        N  0.27222504  0.36695422  0.85032705    -0.88900
H211        H  0.35629179  0.46331674  0.99072689     0.35200
H212        H  0.38264354  0.42272541  0.99893922     0.40300
H213        H  0.26111228  0.38887738  0.82438252     0.39900
H214        H  0.25069730  0.35428716  0.86880494     0.34800
C215        C  0.24794995  0.26270988  0.66609711    -0.27000
C216        C  0.25766805  0.23721379  0.62652597    -0.15000
C217        C  0.28960663  0.24355754  0.59734646     0.35600
C218        C  0.30980304  0.27354162  0.60803842    -0.26400
C219        C  0.30015420  0.29905392  0.64679101    -0.15700
C220        C  0.26882132  0.29339285  0.67649402     0.36700
N221        N  0.25814205  0.31866294  0.71677854    -0.89900
H222        H  0.22415708  0.25921999  0.68941490     0.17800
H223        H  0.33405166  0.27652938  0.58508316     0.17800
N224        N  0.30325079  0.22024529  0.55635969    -0.88900
H225        H  0.23479579  0.31038182  0.73557772     0.35200
H226        H  0.25168810  0.34530777  0.69778431     0.40300
H227        H  0.28499128  0.22042185  0.52501262     0.39900
H228        H  0.31030216  0.19281848  0.57158784     0.34800
C229        C  0.31671425  0.05546718  0.60609748    -0.27000
C230        C  0.30501938  0.02910864  0.64494349    -0.15000
C231        C  0.27030166  0.03480763  0.66635192     0.35600
C232        C  0.24909029  0.06818177  0.65149525    -0.26400
C233        C  0.26249669  0.09633022  0.61714794    -0.15700
C234        C  0.29586794  0.08922137  0.59228970     0.36700
N235        N  0.30885892  0.11691717  0.55438934    -0.89900
H236        H  0.34889270  0.55413633  0.59344104     0.17800
H237        H  0.22285875  0.07305125  0.66889525     0.17800
N238        N  0.25726702  0.00719292  0.70432010    -0.88900
H239        H  0.29105461  0.11982680  0.52200564     0.35200
H240        H  0.33382797  0.10747481  0.53972184     0.40300
H241        H  0.25777460  0.48145889  0.67547014     0.39900
H242        H  0.23144178  0.01577313  0.71669468     0.34800
C243        C  0.16443958  0.13653431  0.41913270    -0.27000
C244        C  0.18439487  0.15337598  0.37820513    -0.15000
C245        C  0.21125310  0.17705461  0.39116652     0.35600
C246        C  0.21831081  0.18245502  0.44514571    -0.26400
C247        C  0.19815266  0.16578650  0.48674284    -0.15700
C248        C  0.17037115  0.14320275  0.47278464     0.36700
N249        N  0.14707780  0.12799765  0.51236965    -0.89900
H250        H  0.14335734  0.11868675  0.40923180     0.17800
H251        H  0.24019409  0.19931412  0.45449216     0.17800
N252        N  0.23155716  0.19505371  0.34963208    -0.88900
H253        H  0.14859238  0.09863407  0.51055102     0.35200
H254        H  0.12077730  0.13828402  0.50281375     0.40300
H255        H  0.24631500  0.17387263  0.33048753     0.39900
H256        H  0.25016162  0.21186821  0.36572507     0.34800
C257        C  0.25900432  0.29589429  0.17195497    -0.27000
C258        C  0.24775338  0.32401587  0.13197400    -0.15000
C259        C  0.21546775  0.31989465  0.10419410     0.35600
C260        C  0.19535616  0.28914953  0.11669386    -0.26400
C261        C  0.20653199  0.26074394  0.15583495    -0.15700
C262        C  0.23897319  0.26409177  0.18370030     0.36700
N263        N  0.25161371  0.23542919  0.22355998    -0.89900
H264        H  0.28351778  0.29792603  0.19392128     0.17800
H265        H  0.17080566  0.28748979  0.09420119     0.17800
N266        N  0.20289225  0.34704931  0.06244319    -0.88900
H267        H  0.27495170  0.24300329  0.24190753     0.35200
H268        H  0.25891925  0.21096741  0.20410394     0.40300
H269        H  0.20067379  0.33303181  0.02744126     0.39900
H270        H  0.17732263  0.35817974  0.07243679     0.34800
C271        C  0.20366544  0.47009921  0.10580809    -0.27000
C272        C  0.24055536  0.46517243  0.11787140    -0.15000
C273        C  0.25614837  0.49302873  0.14606644     0.35600
C274        C  0.23806840  0.02420670  0.15836050    -0.26400
C275        C  0.20042823  0.02667973  0.15434325    -0.15700
C276        C  0.18206796  0.50068484  0.12356678     0.36700
N277        N  0.14424660  0.50315484  0.11279927    -0.89900
H278        H  0.19111689  0.44907215  0.08419586     0.17800
H279        H  0.25128630  0.04577084  0.17787097     0.17800
N280        N  0.29371709  0.48971321  0.15811657    -0.88900
H281        H  0.14050020  0.50458025  0.07152643     0.35200
H282        H  0.13645479  0.97568400  0.13950266     0.40300
H283        H  0.29676879  0.49027070  0.19933123     0.39900
H284        H  0.30574949  0.01619845  0.12016573     0.34800
C285        C  0.12804880  0.11941203  0.74394637    -0.27000
C286        C  0.09459374  0.12035386  0.71830934    -0.15000
C287        C  0.09082899  0.13697724  0.66589295     0.35600
C288        C  0.12074729  0.15089730  0.63960976    -0.26400
C289        C  0.15422446  0.14990558  0.66532427    -0.15700
C290        C  0.15759134  0.13459330  0.71851096     0.36700
N291        N  0.19060276  0.13421337  0.74774256    -0.89900
H292        H  0.13125446  0.10688873  0.78412908     0.17800
H293        H  0.11764032  0.16340281  0.59934256     0.17800
N294        N  0.05672283  0.14116287  0.63921073    -0.88900
H295        H  0.19706909  0.16207950  0.75093506     0.35200
H296        H  0.21092456  0.12026299  0.72661052     0.40300
H297        H  0.03872747  0.15676531  0.66246681     0.39900
H298        H  0.04737618  0.11438090  0.63617951     0.34800
C299        C  0.09519681  0.11937169  0.89829630    -0.27000
C300        C  0.06245262  0.10272588  0.89547139    -0.15000
C301        C  0.04529470  0.09144115  0.94337995     0.35600
C302        C  0.06096183  0.09735656  0.99262354    -0.26400
C303        C  0.09310487  0.11514007  0.99509866    -0.15700
C304        C  0.11099009  0.12517202  0.94745330     0.36700
N305        N  0.14514817  0.14133618  0.94923985    -0.89900
H306        H  0.10865610  0.12791159  0.86207112     0.17800
H307        H  0.04689152  0.08990768  0.02896420     0.17800
N308        N  0.01101856  0.07590010  0.94248404    -0.88900
H309        H  0.15463862  0.14726227  0.91079471     0.35200
H310        H  0.16346641  0.12089643  0.96756431     0.40300
H311        H  0.99280921  0.09335051  0.96282545     0.39900
H312        H  0.01334884  0.04935865  0.96312862     0.34800
C313        C  0.38691020  0.42071034  0.23444068    -0.27000
C314        C  0.41921221  0.41229638  0.20819420    -0.15000
C315        C  0.41817589  0.40383803  0.15408027     0.35600
C316        C  0.38485993  0.40169586  0.12860588    -0.26400
C317        C  0.35259090  0.40735642  0.15607807    -0.15700
C318        C  0.35366500  0.41718164  0.20979385     0.36700
N319        N  0.32186628  0.42233539  0.24130950    -0.89900
H320        H  0.38741791  0.42720932  0.27586669     0.17800
H321        H  0.38413594  0.39296848  0.08826105     0.17800
N322        N  0.45099460  0.39587651  0.12593951    -0.88900
H323        H  0.32299239  0.40084613  0.27175838     0.35200
H324        H  0.29856404  0.41967200  0.21935906     0.40300
H325        H  0.46482511  0.42046103  0.12374471     0.39900
H326        H  0.44561739  0.38969396  0.08677688     0.34800
C327        C  0.40657567  0.40833808  0.45853769    -0.27000
C328        C  0.42645136  0.42936242  0.49187881    -0.15000
C329        C  0.45729809  0.44572176  0.47195909     0.35600
C330        C  0.46825741  0.43957111  0.41943107    -0.26400
C331        C  0.44870399  0.41791266  0.38637699    -0.15700
C332        C  0.41740446  0.40203533  0.40641301     0.36700
N333        N  0.39689021  0.37797670  0.37620880    -0.89900
H334        H  0.38339299  0.39479642  0.47427510     0.17800
H335        H  0.49357867  0.44932466  0.40554831     0.17800
N336        N  0.47880562  0.46587395  0.50631736    -0.88900
H337        H  0.39913080  0.35099392  0.39557353     0.35200
H338        H  0.40707644  0.37514354  0.33804960     0.40300
H339        H  0.46334219  0.48995669  0.51657486     0.39900
H340        H  0.50111133  0.47539242  0.48591348     0.34800
C341        C  0.94567753  0.99171910  0.79815675    -0.27000
C342        C  0.95502260  0.96582775  0.76042714    -0.15000
C343        C  0.98175940  0.47066167  0.72548048     0.35600
C344        C  0.00234123  0.00575621  0.72996288    -0.26400
C345        C  0.99275694  0.03240354  0.76783806    -0.15700
C346        C  0.96321354  0.02469770  0.80195076     0.36700
N347        N  0.94943897  0.04954469  0.84096298    -0.89900
H348        H  0.92327901  0.98690517  0.82427651     0.17800
H349        H  0.02441221  0.00977582  0.70325058     0.17800
N350        N  0.99417044  0.44442205  0.68725652    -0.88900
H351        H  0.93922323  0.07525234  0.82290307     0.35200
H352        H  0.96901440  0.05362709  0.86902304     0.40300
H353        H  0.97951220  0.42047169  0.68918897     0.39900
H354        H  0.02058702  0.43499513  0.69754726     0.34800
C355        C  0.97089386  0.23326136  0.82008080    -0.27000
C356        C  0.94122308  0.24127380  0.78559979    -0.15000
C357        C  0.93624779  0.21653336  0.74456073     0.35600
C358        C  0.95951609  0.18407034  0.74110928    -0.26400
C359        C  0.98724441  0.17446745  0.77860242    -0.15700
C360        C  0.99328441  0.20003905  0.81776269     0.36700
N361        N  0.02044984  0.19143919  0.85780952    -0.89900
H362        H  0.97557457  0.25175249  0.85158944     0.17800
H363        H  0.95484411  0.16537994  0.70987532     0.17800
N364        N  0.90690794  0.22222361  0.70744381    -0.88900
H365        H  0.00814187  0.19073888  0.89506370     0.35200
H366        H  0.03778871  0.21330053  0.85606507     0.40300
H367        H  0.90846192  0.24836399  0.68641458     0.39900
H368        H  0.88278992  0.22198318  0.72834417     0.34800
C369        C  0.78830663  0.34756127  0.58592035    -0.27000
C370        C  0.82269780  0.33523989  0.60453900    -0.15000
C371        C  0.84836868  0.32048453  0.56932893     0.35600
C372        C  0.84027738  0.32214108  0.51474169    -0.26400
C373        C  0.80703860  0.33857515  0.49470917    -0.15700
C374        C  0.77988074  0.34804288  0.53165314     0.36700
N375        N  0.74380900  0.35859184  0.51417987    -0.89900
H376        H  0.76809910  0.35752176  0.61351859     0.17800
H377        H  0.86027789  0.31044834  0.48848174     0.17800
N378        N  0.88294051  0.30510586  0.58889341    -0.88900
H379        H  0.73653131  0.38554369  0.52664244     0.35200
H380        H  0.72699144  0.33968372  0.53303743     0.40300
H381        H  0.89626605  0.32712745  0.60375910     0.39900
H382        H  0.89862341  0.29496752  0.55785304     0.34800
C383        C  0.79761260  0.01343499  0.87608482    -0.27000
C384        C  0.76897526  0.03043457  0.84457769    -0.15000
C385        C  0.76269890  0.01615230  0.79449362     0.35600
C386        C  0.78551809  0.98609058  0.77684019    -0.26400
C387        C  0.81377939  0.46735218  0.80745771    -0.15700
C388        C  0.82000149  0.98310005  0.85904707     0.36700
N389        N  0.84674981  0.46437091  0.89360742    -0.89900
H390        H  0.80312739  0.02437115  0.91420429     0.17800
H391        H  0.78056157  0.97550656  0.73829139     0.17800
N392        N  0.73271692  0.03142458  0.76217245    -0.88900
H393        H  0.84608833  0.47714537  0.92988907     0.35200
H394        H  0.87156703  0.46942287  0.87667050     0.40300
H395        H  0.70940216  0.02523583  0.78273680     0.39900
H396        H  0.73194733  0.01800652  0.72647701     0.34800
C397        C  0.74243277  0.20039422  0.83796687    -0.27000
C398        C  0.75962799  0.16398567  0.83695629    -0.15000
C399        C  0.79561781  0.15979567  0.82062570     0.35600
C400        C  0.81449216  0.19226181  0.80937537    -0.26400
C401        C  0.79789298  0.22867650  0.81359520    -0.15700
C402        C  0.76113864  0.23283858  0.82595846     0.36700
N403        N  0.74375684  0.26986568  0.83038164    -0.89900
H404        H  0.71479144  0.20346168  0.85088036     0.17800
H405        H  0.84280645  0.18917371  0.80005759     0.17800
N406        N  0.81339780  0.12272396  0.81847730    -0.88900
H407        H  0.71700864  0.26797031  0.84170530     0.35200
H408        H  0.74320233  0.28371057  0.79244768     0.40300
H409        H  0.81491044  0.11024009  0.85724931     0.39900
H410        H  0.83981722  0.12456298  0.80553215     0.34800
C411        C  0.53511781  0.03105466  0.30456927    -0.27000
C412        C  0.56783130  0.03086188  0.27728010    -0.15000
C413        C  0.57801799  0.50284492  0.23651805     0.35600
C414        C  0.55533550  0.47287550  0.23496716    -0.26400
C415        C  0.52469919  0.47098770  0.26729260    -0.15700
C416        C  0.51483825  0.50249008  0.29710488     0.36700
N417        N  0.47879374  0.00385982  0.32889984    -0.89900
H418        H  0.52834348  0.05298526  0.33155476     0.17800
H419        H  0.56217683  0.45031043  0.20907799     0.17800
N420        N  0.60902613  0.50357808  0.20305350    -0.88900
H421        H  0.46342296  0.02803418  0.31419179     0.35200
H422        H  0.48784254  0.50941223  0.36548909     0.40300
H423        H  0.60261953  0.02803455  0.18118009     0.39900
H424        H  0.61118885  0.47995894  0.18028056     0.34800
C425        C  0.56434464  0.28517859  0.22717039    -0.27000
C426        C  0.56047396  0.25497917  0.26504343    -0.15000
C427        C  0.53560086  0.26003273  0.30661508     0.35600
C428        C  0.51749930  0.29572959  0.31151646    -0.26400
C429        C  0.52337971  0.32695148  0.27580468    -0.15700
C430        C  0.54572067  0.32048255  0.23155733     0.36700
N431        N  0.54951189  0.34970790  0.19049078    -0.89900
H432        H  0.58253770  0.28178646  0.19411847     0.17800
H433        H  0.49788445  0.29820157  0.34261534     0.17800
N434        N  0.52844497  0.22891098  0.34350676    -0.88900
H435        H  0.57669976  0.35471320  0.18756169     0.35200
H436        H  0.54135842  0.33988023  0.15443122     0.40300
H437        H  0.51653636  0.20881917  0.32204817     0.39900
H438        H  0.50981455  0.23738045  0.37205815     0.34800
C439        C  0.72181995  0.11116654  0.08519728    -0.27000
C440        C  0.68728474  0.10429222  0.10293552    -0.15000
C441        C  0.66300261  0.08984916  0.06787162     0.35600
C442        C  0.67255901  0.08538362  0.01498360    -0.26400
C443        C  0.70604612  0.09544245  0.99524268    -0.15700
C444        C  0.73200653  0.10538304  0.03236605     0.36700
N445        N  0.76833812  0.11038305  0.01619713    -0.89900
H446        H  0.74087453  0.12109238  0.11270299     0.17800
H447        H  0.65322747  0.07397973  0.98959966     0.17800
N448        N  0.62786071  0.08073967  0.08434061    -0.88900
H449        H  0.77973709  0.08414330  0.00605532     0.35200
H450        H  0.78359922  0.11843036  0.04789454     0.40300
H451        H  0.61457154  0.10465149  0.09926821     0.39900
H452        H  0.63075356  0.05939289  0.11474099     0.34800
C453        C  0.74780141  0.99532312  0.33509872    -0.27000
C454        C  0.71315076  0.99482549  0.31400897    -0.15000
C455        C  0.70347022  0.45932178  0.29654615     0.35600
C456        C  0.72368533  0.42511456  0.31117940    -0.26400
C457        C  0.75574211  0.42489818  0.34042686    -0.15700
C458        C  0.76954225  0.45978816  0.35077641     0.36700
N459        N  0.80296972  0.46038923  0.37907840    -0.89900
H460        H  0.75769792  0.02205478  0.34452076     0.17800
H461        H  0.71320192  0.39844559  0.30287381     0.17800
N462        N  0.66953693  0.45889032  0.26962941    -0.88900
H463        H  0.80907076  0.48816932  0.38423699     0.35200
H464        H  0.82323771  0.44863730  0.35546686     0.40300
H465        H  0.64946582  0.46811306  0.29557408     0.39900
H466        H  0.66438095  0.43129949  0.26157476     0.34800
C467        C  0.69081389  0.25456376  0.35023884    -0.27000
C468        C  0.70143206  0.23482613  0.30575949    -0.15000
C469        C  0.73240855  0.24509529  0.27762745     0.35600
C470        C  0.75227422  0.27441960  0.29521768    -0.26400
C471        C  0.74185101  0.29354795  0.34034732    -0.15700
C472        C  0.71028164  0.28395620  0.36738564     0.36700
N473        N  0.69804544  0.30425407  0.41230710    -0.89900
H474        H  0.66654904  0.24766654  0.37105256     0.17800
H475        H  0.77668528  0.28139518  0.27489186     0.17800
N476        N  0.74402332  0.22519892  0.23212128    -0.88900
H477        H  0.67455241  0.29375319  0.42785575     0.35200
H478        H  0.69152327  0.33230816  0.39868604     0.40300
H479        H  0.75100828  0.19714601  0.24531799     0.39900
H480        H  0.76724123  0.23603633  0.21611709     0.34800
C481        C  0.59935391  0.10618380  0.77041032    -0.27000
C482        C  0.59888626  0.14304650  0.74672080    -0.15000
C483        C  0.63033193  0.16304954  0.74913498     0.35600
C484        C  0.66019316  0.14667122  0.77850870    -0.26400
C485        C  0.65964901  0.11087029  0.80527323    -0.15700
C486        C  0.62905129  0.09012278  0.80000001     0.36700
N487        N  0.62724356  0.05282001  0.82454029    -0.89900
H488        H  0.57578582  0.09026362  0.76775838     0.17800
H489        H  0.68350225  0.16279589  0.78218946     0.17800
N490        N  0.63305600  0.19982246  0.72273675    -0.88900
H491        H  0.62929403  0.05382677  0.86577284     0.35200
H492        H  0.64894081  0.03578603  0.81143237     0.40300
H493        H  0.61031325  0.20835760  0.69973360     0.39900
H494        H  0.65426238  0.19765782  0.69585055     0.34800
C495        C  0.47896166  0.08251108  0.74911959    -0.27000
C496        C  0.49255254  0.09621192  0.70042223    -0.15000
C497        C  0.48723267  0.07652757  0.65465677     0.35600
C498        C  0.46644944  0.04496948  0.65758222    -0.26400
C499        C  0.45081313  0.03243945  0.70578546    -0.15700
C500        C  0.45871257  0.05069127  0.75246939     0.36700
N501        N  0.44349913  0.54387950  0.79894502    -0.89900
H502        H  0.48354328  0.09709999  0.78477257     0.17800
H503        H  0.46137641  0.03126721  0.62136503     0.17800
N504        N  0.50131433  0.08958484  0.60454838    -0.88900
H505        H  0.42719658  0.56676866  0.81130630     0.35200
H506        H  0.46458226  0.53831998  0.82638191     0.40300
H507        H  0.51824213  0.06775366  0.59060359     0.39900
H508        H  0.47987746  0.09494855  0.57769445     0.34800
C509        C  0.47907180  0.30660247  0.69928317    -0.27000
C510        C  0.44312034  0.30514424  0.71473637    -0.15000
C511        C  0.43197559  0.27163539  0.74007353     0.35600
C512        C  0.45559626  0.23886191  0.74301857    -0.26400
C513        C  0.48991746  0.23855507  0.71941187    -0.15700
C514        C  0.50279744  0.27394444  0.70303425     0.36700
N515        N  0.53938555  0.27644650  0.68714108    -0.89900
H516        H  0.48817738  0.33264861  0.68108733     0.17800
H517        H  0.44603419  0.21354081  0.76202704     0.17800
N518        N  0.39564393  0.27014133  0.75831012    -0.88900
H519        H  0.55100866  0.29519519  0.71125339     0.35200
H520        H  0.53961252  0.28795855  0.64787834     0.40300
H521        H  0.39231196  0.28817188  0.78939424     0.39900
H522        H  0.39112349  0.24304193  0.77430031     0.34800
C523        C  0.55390747  0.16416970  0.48187040    -0.27000
C524        C  0.59072950  0.15360777  0.48037000    -0.15000
C525        C  0.61121291  0.15100591  0.52772119     0.35600
C526        C  0.59416079  0.15804606  0.57611586    -0.26400
C527        C  0.55709654  0.16747967  0.57805026    -0.15700
C528        C  0.53688729  0.17129716  0.53007903     0.36700
N529        N  0.49894319  0.18063250  0.52919675    -0.89900
H530        H  0.53806053  0.16563933  0.44554488     0.17800
H531        H  0.60974909  0.15551732  0.61273345     0.17800
N532        N  0.64915989  0.14101262  0.52647116    -0.88900
H533        H  0.49394994  0.20788530  0.54176659     0.35200
H534        H  0.48670994  0.16173240  0.55558963     0.40300
H535        H  0.65277848  0.11316187  0.51546133     0.39900
H536        H  0.66042481  0.14132451  0.56451133     0.34800
C537        C  0.85441896  0.38855425  0.27941665    -0.27000
C538        C  0.85353513  0.35296773  0.30653634    -0.15000
C539        C  0.88338244  0.32658972  0.30391850     0.35600
C540        C  0.91415865  0.33697622  0.27628564    -0.26400
C541        C  0.91586197  0.37328291  0.25143917    -0.15700
C542        C  0.88503856  0.39906423  0.25150081     0.36700
N543        N  0.88349516  0.43578532  0.22366648    -0.89900
H544        H  0.83148030  0.40883424  0.28118209     0.17800
H545        H  0.93733845  0.31689935  0.27517108     0.17800
N546        N  0.88250921  0.28965598  0.33049577    -0.88900
H547        H  0.86231360  0.43701878  0.19622000     0.35200
H548        H  0.90636090  0.43971421  0.20099203     0.40300
H549        H  0.86235014  0.27589914  0.31238092     0.39900
H550        H  0.90660604  0.27361886  0.32494605     0.34800
C551        C  0.04294598  0.29215218  0.24188651    -0.27000
C552        C  0.02104965  0.30680690  0.19892984    -0.15000
C553        C  0.01757300  0.28491208  0.15477502     0.35600
C554        C  0.03811095  0.25051270  0.15239250    -0.26400
C555        C  0.06280553  0.23740264  0.19301081    -0.15700
C556        C  0.06340826  0.25739634  0.23987435     0.36700
N557        N  0.08572549  0.24326346  0.28439346    -0.89900
H558        H  0.04482572  0.30845200  0.27657724     0.17800
H559        H  0.03642407  0.23543424  0.11651462     0.17800
N560        N  0.99519908  0.29863357  0.11038273    -0.88900
H561        H  0.07592084  0.21786407  0.29919591     0.35200
H562        H  0.08345633  0.26165070  0.31518114     0.40300
H563        H  0.97646602  0.27878816  0.10447768     0.39900
H564        H  0.01120977  0.30067662  0.07647986     0.34800
C565        C  0.05819744  0.44785488  0.22974228    -0.27000
C566        C  0.02319681  0.45066714  0.20823999    -0.15000
C567        C  0.00759965  0.48735183  0.19271284     0.35600
C568        C  0.02995895  0.02303299  0.19445881    -0.26400
C569        C  0.06496358  0.01786614  0.21541308    -0.15700
C570        C  0.07820725  0.47954100  0.23239829     0.36700
N571        N  0.11450178  0.47432113  0.25162927    -0.89900
H572        H  0.07096878  0.42122106  0.24485571     0.17800
H573        H  0.01921144  0.05102419  0.18038521     0.17800
N574        N  0.97133526  0.49239452  0.17343952    -0.88900
H575        H  0.12875128  0.45553856  0.22777075     0.35200
H576        H  0.11424405  0.46190182  0.29040221     0.40300
H577        H  0.97153135  0.50545963  0.13502887     0.39900
H578        H  0.95854324  0.01817766  0.19320768     0.34800
C579        C  0.97079380  0.39022218  0.03276990    -0.27000
C580        C  0.95212715  0.38150318  0.07992572    -0.15000
C581        C  0.91736192  0.36877429  0.07656007     0.35600
C582        C  0.90293900  0.36261301  0.02688362    -0.26400
C583        C  0.92187220  0.37039581  0.98006202    -0.15700
C584        C  0.95582698  0.38521708  0.98290940     0.36700
N585        N  0.97618282  0.39398293  0.93616672    -0.89900
H586        H  0.99750360  0.40012425  0.03461357     0.17800
H587        H  0.87664353  0.35167407  0.02485170     0.17800
N588        N  0.89612172  0.36296249  0.12322097    -0.88900
H589        H  0.96140162  0.41477142  0.91239063     0.35200
H590        H  0.97994019  0.36968520  0.91499359     0.40300
H591        H  0.88915280  0.33494504  0.12562982     0.39900
H592        H  0.87251123  0.38053191  0.11878944     0.34800
C593        C  0.00074370  0.92072449  0.19828407     0.85800
C594        C  0.98741656  0.92070608  0.14030474    -0.54400
C595        C  0.96672994  0.89172283  0.13078327     0.08800
C596        C  0.96262162  0.86412078  0.17947413     0.19700
C597        C  0.96664184  0.91862777  0.23240011    -0.55100
C598        C  0.94672578  0.88899986  0.22219532     0.08900
C599        C  0.02090582  0.88119312  0.20804253    -0.54700
C600        C  0.00104872  0.85164667  0.19813773     0.09400
H601        H  0.99325252  0.94224498  0.10964452     0.14000
H602        H  0.94645204  0.83999020  0.17201895    -0.00300
H603        H  0.95914345  0.93852136  0.26210222     0.14300
H604        H  0.04911266  0.87604187  0.21766184     0.14000
C605        C  0.51217952  0.70299612  0.69964014     0.85800
C606        C  0.49114936  0.66709478  0.70491669    -0.54400
C607        C  0.51005622  0.63496141  0.69173829     0.08800
C608        C  0.54835085  0.64105169  0.67355805     0.19700
C609        C  0.54661849  0.69274520  0.73298599    -0.55100
C610        C  0.56548900  0.66034111  0.71910254     0.08900
C611        C  0.52511568  0.70397251  0.64133790    -0.54700
C612        C  0.54418405  0.67178953  0.62770208     0.09400
H613        H  0.46323321  0.66628495  0.71590410     0.14000
H614        H  0.56357774  0.61461569  0.66302942    -0.00300
H615        H  0.55518908  0.70943598  0.76470396     0.14300
H616        H  0.52084205  0.72872182  0.61418652     0.14000
O617        O  0.61571076  0.60321697  0.42376363    -0.81500
O618        O  0.66861055  0.59055177  0.18478013    -0.66200
O619        O  0.65692863  0.61049775  0.33118561    -1.12800
C620        C  0.58574699  0.71978103  0.25996054     1.05400
O621        O  0.67966616  0.64978887  0.16229092    -0.79400
O622        O  0.67543728  0.70395740  0.23334744    -0.67000
Ni623      Ni  0.64130183  0.56996167  0.37766815     1.34900
C624        C  0.67851521  0.70710871  0.28301120     0.84100
O625        O  0.69758395  0.55701676  0.27520848    -0.80000
O626        O  0.66690564  0.53015926  0.34124594    -0.90200
C627        C  0.67931963  0.61538649  0.15135169     0.83700
O628        O  0.59888011  0.56563611  0.33674014    -0.68500
O629        O  0.60353449  0.71574901  0.21710401    -0.87700
C630        C  0.59901469  0.55617374  0.28891344     0.84500
C631        C  0.69232783  0.52916897  0.30786780     1.06100
H632        H  0.60673876  0.63272922  0.23245217     0.37900
O633        O  0.62906464  0.64160582  0.24435605    -1.10400
O634        O  0.66086450  0.68818712  0.31754919    -0.67000
Ni635      Ni  0.62296281  0.65356053  0.31660060     1.26300
O636        O  0.62417437  0.56463781  0.25689124    -0.67300
O637        O  0.58916015  0.69601769  0.30014474    -0.79600
C638        C  0.61048288  0.63857713  0.42770827     0.83900
O639        O  0.61617661  0.66278189  0.38996346    -0.66700
Ni640      Ni  0.64109200  0.68066409  0.19267478     1.27400
Ni641      Ni  0.66293200  0.59895739  0.25840233     1.26100
H642        H  0.67918416  0.61852345  0.34477794     0.38400
C643        C  0.71685200  0.59858899  0.93013867     0.85800
C644        C  0.73652935  0.63276463  0.90843114    -0.54400
C645        C  0.74423696  0.63290866  0.85563964     0.08800
C646        C  0.73078770  0.59895832  0.82813934     0.19700
C647        C  0.68330440  0.60057623  0.89423077    -0.55100
C648        C  0.69017955  0.60065842  0.84096034     0.08900
C649        C  0.73956311  0.56380549  0.91422350    -0.54700
C650        C  0.74737636  0.56331634  0.86113885     0.09400
H651        H  0.74312891  0.65571678  0.93229708     0.14000
H652        H  0.73684928  0.60000566  0.78499893    -0.00300
H653        H  0.65630840  0.60622006  0.90888744     0.14300
H654        H  0.74817726  0.54100163  0.94320686     0.14000
O655        O  0.83218935  0.88009205  0.67117573    -0.81500
O656        O  0.90257171  0.88475521  0.88954263    -0.66200
O657        O  0.88663877  0.86464875  0.74609831    -1.12800
C658        C  0.82333307  0.76224693  0.80955734     1.05400
O659        O  0.89773419  0.82718531  0.92859943    -0.79400
O660        O  0.91500109  0.78356874  0.84494426    -0.67000
Ni661      Ni  0.87270281  0.90533063  0.69502178     1.34900
C662        C  0.91564595  0.77344785  0.79734947     0.84100
O663        O  0.92776270  0.91271127  0.79872854    -0.80000
O664        O  0.91273523  0.93327700  0.71443308    -0.90200
C665        C  0.90594888  0.86119957  0.92933772     0.83700
O666        O  0.84110021  0.93586600  0.73755117    -0.68500
O667        O  0.84685385  0.76068365  0.84634541    -0.87700
C668        C  0.83842610  0.93809628  0.78756823     0.84500
C669        C  0.93131621  0.93446279  0.75691803     1.06100
H670        H  0.83698517  0.85104145  0.84484534     0.37900
O671        O  0.85911661  0.83877680  0.83299216    -1.10400
O672        O  0.89220824  0.78700488  0.76259170    -0.67000
Ni673      Ni  0.85327267  0.82713090  0.76046004     1.26300
O674        O  0.85645140  0.91558098  0.82047724    -0.67300
O675        O  0.81872332  0.79044890  0.77603557    -0.79600
C676        C  0.83511926  0.84668084  0.65580670     0.83900
O677        O  0.84792628  0.81946067  0.68672370    -0.66700
Ni678      Ni  0.87239270  0.79693533  0.88262171     1.27400
Ni679      Ni  0.89403735  0.87574654  0.81740005     1.26100
H680        H  0.90874696  0.85257290  0.73354885     0.38400
C681        C  0.79812129  0.84628055  0.43254132     0.85800
C682        C  0.77293154  0.81803310  0.41341912    -0.54400
C683        C  0.76430251  0.82252421  0.36056085     0.08800
C684        C  0.78249558  0.85557749  0.33077195     0.19700
C685        C  0.83092824  0.84275351  0.39594826    -0.55100
C686        C  0.82302566  0.84798015  0.34284222     0.08900
C687        C  0.78049364  0.88552938  0.41498799    -0.54700
C688        C  0.77201319  0.89044562  0.36218138     0.09400
H689        H  0.76322967  0.79562932  0.43974759     0.14000
H690        H  0.77584415  0.85958615  0.28765346    -0.00300
H691        H  0.85845532  0.84122679  0.41017949     0.14300
H692        H  0.77542628  0.90791164  0.44194807     0.14000
C693        C  0.50184174  0.86522211  0.28139012     0.85800
C694        C  0.48335616  0.87141175  0.33521720    -0.54400
C695        C  0.46353427  0.90503629  0.33681941     0.08800
C696        C  0.46357214  0.92991121  0.28444522     0.19700
C697        C  0.47156453  0.87108197  0.24001507    -0.55100
C698        C  0.45136995  0.90451219  0.24125622     0.08900
C699        C  0.52359227  0.90031163  0.27281701    -0.54700
C700        C  0.50389450  0.93448169  0.27373383     0.09400
H701        H  0.48699103  0.85250714  0.37060395     0.14000
H702        H  0.44649269  0.95661605  0.28530417    -0.00300
H703        H  0.46549829  0.84943561  0.21346620     0.14300
H704        H  0.55257040  0.89809472  0.26883421     0.14000
C705        C  0.01152570  0.56594258  0.77306088     0.85800
C706        C  0.98863657  0.60381146  0.76483762    -0.54400
C707        C  0.00585316  0.63508895  0.77648997     0.08800
C708        C  0.04535421  0.62562777  0.79307627     0.19700
C709        C  0.04458564  0.57215570  0.73719199    -0.55100
C710        C  0.06212529  0.60343716  0.74767477     0.08900
C711        C  0.02708336  0.56522987  0.82968678    -0.54700
C712        C  0.04368227  0.59662751  0.84090511     0.09400
H713        H  0.96085718  0.60560505  0.75168453     0.14000
H714        H  0.06001188  0.65075035  0.80105740    -0.00300
H715        H  0.05409370  0.55409132  0.70652081     0.14300
H716        H  0.02531818  0.54146214  0.85865472     0.14000
O717        O  0.10748160  0.66209685  0.04646801    -0.81500
O718        O  0.16095797  0.67232068  0.28659314    -0.66200
O719        O  0.14580664  0.65114171  0.14101548    -1.12800
C720        C  0.08452934  0.54950008  0.21568893     1.05400
O721        O  0.17729322  0.61219468  0.30754602    -0.79400
O722        O  0.17894338  0.56448022  0.22671272    -0.67000
Ni723      Ni  0.12946050  0.69323142  0.09384109     1.34900
C724        C  0.17382677  0.55748492  0.17849081     0.84100
O725        O  0.18701899  0.70112005  0.19318034    -0.80000
O726        O  0.15127452  0.73071386  0.13187489    -0.90200
C727        C  0.17200226  0.64605441  0.32064208     0.83700
O728        O  0.08678105  0.70013766  0.13387593    -0.68500
O729        O  0.10968361  0.54858885  0.25022666    -0.87700
C730        C  0.08710307  0.71184373  0.18056180     0.84500
C731        C  0.17962405  0.72897337  0.15987114     1.06100
H732        H  0.10142287  0.63454322  0.24739917     0.37900
O733        O  0.12280247  0.62417376  0.23053864    -1.10400
O734        O  0.14781071  0.57358046  0.15091666    -0.67000
Ni735      Ni  0.11124647  0.61414878  0.15939436     1.26300
O736        O  0.11304368  0.70168119  0.21329081    -0.67300
O737        O  0.07821096  0.57724357  0.18141194    -0.79600
C738        C  0.09776046  0.62873447  0.04649244     0.83900
O739        O  0.09845574  0.60616433  0.08761384    -0.66700
Ni740      Ni  0.14304672  0.58243399  0.27546916     1.27400
Ni741      Ni  0.15395029  0.66335699  0.21303905     1.26100
H742        H  0.16751667  0.63918746  0.12708586     0.38400
C743        C  0.23264753  0.70201298  0.61351576     0.85800
C744        C  0.20136579  0.69110490  0.65010437    -0.54400
C745        C  0.18663031  0.65842172  0.63757168     0.08800
C746        C  0.20471879  0.63955785  0.58983386     0.19700
C747        C  0.25885596  0.66660170  0.61763121    -0.55100
C748        C  0.24462794  0.63409276  0.60520065     0.08900
C749        C  0.21546280  0.70348205  0.55780443    -0.54700
C750        C  0.20257136  0.67050426  0.54320984     0.09400
H751        H  0.19066881  0.70778851  0.68167397     0.14000
H752        H  0.19389217  0.61241673  0.58159021    -0.00300
H753        H  0.28637471  0.66712491  0.63152885     0.14300
H754        H  0.21301491  0.72933521  0.53248027     0.14000
O755        O  0.42014379  0.89438465  0.57104953    -0.81500
O756        O  0.34268882  0.87945584  0.78497510    -0.66200
O757        O  0.36208267  0.90302090  0.63704397    -1.12800
C758        C  0.42467733  0.00242993  0.70593205     1.05400
O759        O  0.32660146  0.93975617  0.79130066    -0.79400
O760        O  0.33426560  0.99664811  0.71886875    -0.67000
Ni761      Ni  0.38100617  0.86575945  0.59229845     1.34900
C762        C  0.33133929  0.99955183  0.66856693     0.84100
O763        O  0.32266263  0.84773974  0.69294799    -0.80000
O764        O  0.34305156  0.83479194  0.61165316    -0.90200
C765        C  0.33064675  0.90643896  0.81244370     0.83700
O766        O  0.41297741  0.83797922  0.64099909    -0.68500
O767        O  0.40506982  0.99781939  0.74698678    -0.87700
C768        C  0.41535648  0.83446536  0.69113408     0.84500
C769        C  0.32212451  0.82898200  0.65086187     1.06100
H770        H  0.40531223  0.91851420  0.73735030     0.37900
O771        O  0.38286867  0.92931877  0.72197197    -1.10400
O772        O  0.35122329  0.98002949  0.63813132    -0.67000
Ni773      Ni  0.39197379  0.94358604  0.64891798     1.26300
O774        O  0.39395682  0.85224524  0.72175057    -0.67300
O775        O  0.42206845  0.98346128  0.66469382    -0.79600
C776        C  0.41464775  0.92674448  0.54790235     0.83900
O777        O  0.40103460  0.95361576  0.57383329    -0.66700
Ni778      Ni  0.36614009  0.96751264  0.76738408     1.27400
Ni779      Ni  0.35265020  0.88856982  0.70995853     1.26100
H780        H  0.33973243  0.91350081  0.62098312     0.38400
C781        C  0.26782923  0.85749378  0.11458215     0.85800
C782        C  0.30278391  0.86256912  0.14483006    -0.54400
C783        C  0.31895992  0.89472142  0.12866611     0.08800
C784        C  0.29886942  0.91873453  0.08263767     0.13300
C785        C  0.24505482  0.89437309  0.12128920    -0.55100
C786        C  0.26068704  0.92669446  0.10514046     0.08900
C787        C  0.27919153  0.85880156  0.05628456    -0.54700
C788        C  0.29445371  0.89081045  0.03790360     0.09400
H789        H  0.31424404  0.84307474  0.17618674     0.14000
H790        H  0.31175017  0.94480955  0.06955968    -0.00300
H791        H  0.21883075  0.89463090  0.13986008     0.14300
H792        H  0.27529073  0.83550159  0.03153451     0.14000
C793        C  0.34216322  0.91769764  0.90701875    -0.27000
C794        C  0.32186025  0.90051683  0.86957272    -0.15000
C795        C  0.29185293  0.88158053  0.88679496     0.35600
C796        C  0.28286818  0.88014148  0.94124282    -0.26400
C797        C  0.30385882  0.89629055  0.97968711    -0.15700
C798        C  0.33394704  0.91516353  0.96165449     0.36700
N799        N  0.35707165  0.93082963  0.99842227    -0.89900
H800        H  0.36505609  0.93280027  0.89377873     0.17800
H801        H  0.25897539  0.86648716  0.95343365     0.17800
N802        N  0.27036386  0.86435804  0.84894234    -0.88900
H803        H  0.35760333  0.95972289  0.98804556     0.35200
H804        H  0.38299540  0.91838310  0.99384900     0.40300
H805        H  0.25851546  0.88589644  0.82304865     0.39900
H806        H  0.24939110  0.85112151  0.86807032     0.34800
C807        C  0.24818647  0.75793982  0.66923034    -0.27000
C808        C  0.25307660  0.73742957  0.62296882    -0.15000
C809        C  0.28054684  0.74843094  0.58720346     0.35600
C810        C  0.30147180  0.77773658  0.59833636    -0.26400
C811        C  0.29701131  0.79817055  0.64416318    -0.15700
C812        C  0.26962801  0.78818537  0.68000218     0.36700
N813        N  0.26384693  0.80819258  0.72737074    -0.89900
H814        H  0.22826979  0.75019253  0.69805247     0.17800
H815        H  0.32202218  0.78424210  0.56960598     0.17800
N816        N  0.28890617  0.73053212  0.53875523    -0.88900
H817        H  0.24346596  0.79676026  0.75022581     0.35200
H818        H  0.25460818  0.83591946  0.71555288     0.40300
H819        H  0.26834923  0.73654950  0.51083448     0.39900
H820        H  0.29442322  0.70151402  0.54580739     0.34800
C821        C  0.32137801  0.55757764  0.60682482    -0.27000
C822        C  0.30821753  0.52989951  0.64235398    -0.15000
C823        C  0.27244082  0.53451478  0.66004536     0.35600
C824        C  0.25116839  0.56761657  0.64396588    -0.26400
C825        C  0.26536948  0.59671943  0.61213483    -0.15700
C826        C  0.30050641  0.59117894  0.59207749     0.36700
N827        N  0.31525039  0.62023911  0.55827473    -0.89900
H828        H  0.34321379  0.05095882  0.58925385     0.17800
H829        H  0.22413358  0.57168534  0.65900671     0.17800
N830        N  0.25833113  0.50615422  0.69576777    -0.88900
H831        H  0.30000973  0.62347024  0.52316674     0.35200
H832        H  0.34151554  0.61200972  0.54750020     0.40300
H833        H  0.25509411  0.98233732  0.68487152     0.39900
H834        H  0.23179089  0.51399860  0.70560095     0.34800
C835        C  0.16427523  0.63121181  0.41736126    -0.27000
C836        C  0.17896956  0.65402285  0.37667601    -0.15000
C837        C  0.19978763  0.68334954  0.39036420     0.35600
C838        C  0.20691714  0.68802065  0.44445718    -0.26400
C839        C  0.19230801  0.66516192  0.48603566    -0.15700
C840        C  0.16972861  0.63715118  0.47141611     0.36700
N841        N  0.15107595  0.61537103  0.51065991    -0.89900
H842        H  0.14745345  0.60910915  0.40705294     0.17800
H843        H  0.22490731  0.70921756  0.45349063     0.17800
N844        N  0.21435021  0.70769664  0.34937509    -0.88900
H845        H  0.15835870  0.58678841  0.50639055     0.35200
H846        H  0.12354824  0.62000321  0.50291344     0.40300
H847        H  0.23273779  0.69122405  0.32791485     0.39900
H848        H  0.22871314  0.72828724  0.36600403     0.34800
C849        C  0.25532331  0.79610854  0.17090659    -0.27000
C850        C  0.24608345  0.82327908  0.12878405    -0.15000
C851        C  0.21465214  0.81901583  0.09884980     0.35600
C852        C  0.19392331  0.78855443  0.11057768    -0.26400
C853        C  0.20303084  0.76123773  0.15216524    -0.15700
C854        C  0.23411217  0.76529783  0.18272823     0.36700
N855        N  0.24425109  0.73850093  0.22593728    -0.89900
H856        H  0.27873496  0.79839201  0.19535054     0.17800
H857        H  0.17038726  0.78642958  0.08599159     0.17800
N858        N  0.20352585  0.84578338  0.05583379    -0.88900
H859        H  0.24530064  0.75310050  0.26058926     0.35200
H860        H  0.27008273  0.72677607  0.21862833     0.40300
H861        H  0.20235448  0.83137027  0.02101419     0.39900
H862        H  0.17769793  0.85721663  0.06384209     0.34800
C863        C  0.20444260  0.96869888  0.10749402    -0.27000
C864        C  0.24190246  0.96444272  0.11463456    -0.15000
C865        C  0.25896250  0.99372412  0.13790284     0.35600
C866        C  0.23439476  0.52360942  0.16448436    -0.26400
C867        C  0.19724692  0.52749607  0.15425029    -0.15700
C868        C  0.18375871  0.99907151  0.12718879     0.36700
N869        N  0.14545421  0.00066311  0.12183903    -0.89900
H870        H  0.19074683  0.94725290  0.08842284     0.17800
H871        H  0.24651743  0.54401106  0.18773921     0.17800
N872        N  0.29724422  0.99248075  0.14194477    -0.88900
H873        H  0.13908560  0.00174409  0.08127894     0.35200
H874        H  0.13380700  0.47835225  0.12860931     0.40300
H875        H  0.30419085  0.99498509  0.18173406     0.39900
H876        H  0.30494785  0.51357440  0.14070036     0.34800
C877        C  0.12702010  0.61614205  0.74540985    -0.27000
C878        C  0.09433655  0.61536874  0.71800058    -0.15000
C879        C  0.09246090  0.62808835  0.66360012     0.35600
C880        C  0.12293497  0.64143801  0.63817434    -0.26400
C881        C  0.15532844  0.64317823  0.66604922    -0.15700
C882        C  0.15727683  0.63017267  0.72033207     0.36700
N883        N  0.18971819  0.63037939  0.75077219    -0.89900
H884        H  0.12915446  0.60562062  0.78659744     0.17800
H885        H  0.12100569  0.65156630  0.59669162     0.17800
N886        N  0.05966347  0.62904096  0.63375751    -0.88900
H887        H  0.19657027  0.65825050  0.75230967     0.35200
H888        H  0.21019123  0.61516225  0.73144755     0.40300
H889        H  0.03994463  0.64521768  0.65327475     0.39900
H890        H  0.05171304  0.60152436  0.63281245     0.34800
C891        C  0.09114975  0.61725684  0.89926493    -0.27000
C892        C  0.05760004  0.60260346  0.89480899    -0.15000
C893        C  0.03749009  0.59504720  0.94149777     0.35600
C894        C  0.05203233  0.60138375  0.99150306    -0.26400
C895        C  0.08542367  0.61654108  0.99530920    -0.15700
C896        C  0.10518650  0.62420954  0.94887319     0.36700
N897        N  0.13971489  0.63909668  0.95207334    -0.89900
H898        H  0.10659906  0.62368926  0.86412718     0.17800
H899        H  0.03648795  0.59648592  0.02724562     0.17800
N900        N  0.00174528  0.58295504  0.93788592    -0.88900
H901        H  0.13885843  0.66477987  0.92926252     0.35200
H902        H  0.15849401  0.62032497  0.93507223     0.40300
H903        H  0.98591477  0.60494831  0.91800413     0.39900
H904        H  0.99070511  0.57876324  0.97573538     0.34800
C905        C  0.38513375  0.91848251  0.23464600    -0.27000
C906        C  0.41788844  0.91165352  0.20871722    -0.15000
C907        C  0.41764011  0.90487437  0.15400065     0.35600
C908        C  0.38473286  0.90189124  0.12766541    -0.26400
C909        C  0.35219440  0.90503438  0.15505547    -0.15700
C910        C  0.35247921  0.91388809  0.20909214     0.36700
N911        N  0.32029630  0.91617581  0.23992260    -0.89900
H912        H  0.38495319  0.92418797  0.27635820     0.17800
H913        H  0.38467256  0.89447507  0.08669606     0.17800
N914        N  0.45092484  0.89960594  0.12604305    -0.88900
H915        H  0.30986012  0.88966452  0.24281362     0.35200
H916        H  0.30139987  0.93516862  0.22021101     0.40300
H917        H  0.46354568  0.92492271  0.12597571     0.39900
H918        H  0.44617367  0.89465513  0.08622391     0.34800
C919        C  0.40238382  0.91065605  0.45654723    -0.27000
C920        C  0.42269961  0.93065479  0.49067285    -0.15000
C921        C  0.45502159  0.94466991  0.47249542     0.35600
C922        C  0.46673126  0.93773097  0.42063117    -0.26400
C923        C  0.44682445  0.91691533  0.38692349    -0.15700
C924        C  0.41428804  0.90294371  0.40537593     0.36700
N925        N  0.39363350  0.87924794  0.37477178    -0.89900
H926        H  0.37823573  0.89848448  0.47129573     0.17800
H927        H  0.49274166  0.94624490  0.40776417     0.17800
N928        N  0.47716102  0.96300958  0.50820580    -0.88900
H929        H  0.39376667  0.85283680  0.39561775     0.35200
H930        H  0.40526973  0.87444977  0.33801347     0.40300
H931        H  0.46299582  0.98800017  0.51800518     0.39900
H932        H  0.50056651  0.97084297  0.48912572     0.34800
C933        C  0.94244346  0.49034527  0.79618033    -0.27000
C934        C  0.95267373  0.46383786  0.75963579    -0.15000
C935        C  0.98384092  0.97280216  0.72570183     0.35600
C936        C  0.99980200  0.50393595  0.72924836    -0.26400
C937        C  0.98982637  0.53095525  0.76651802    -0.15700
C938        C  0.95990077  0.52344176  0.79996255     0.36700
N939        N  0.94595702  0.54836492  0.83870840    -0.89900
H940        H  0.91973289  0.48566059  0.82177901     0.17800
H941        H  0.02194526  0.50772946  0.70266968     0.17800
N942        N  0.99547934  0.94706103  0.68640636    -0.88900
H943        H  0.93714665  0.57456631  0.82066403     0.35200
H944        H  0.96511170  0.55126358  0.86787393     0.40300
H945        H  0.98060141  0.92327274  0.68814626     0.39900
H946        H  0.02194804  0.93725433  0.69574073     0.34800
C947        C  0.97063390  0.73149507  0.82149782    -0.27000
C948        C  0.94272467  0.74213442  0.78456570    -0.15000
C949        C  0.93849984  0.71878310  0.74151432     0.35600
C950        C  0.96071098  0.68545110  0.73807779    -0.26400
C951        C  0.98681954  0.67367763  0.77714257    -0.15700
C952        C  0.99205235  0.69753668  0.81879622     0.36700
N953        N  0.01734465  0.68639154  0.86072512    -0.89900
H954        H  0.97468009  0.74855121  0.85487192     0.17800
H955        H  0.95651692  0.66780584  0.70541551     0.17800
N956        N  0.91086649  0.72679705  0.70200790    -0.88900
H957        H  0.00349291  0.68485399  0.89673293     0.35200
H958        H  0.03547233  0.70737043  0.86247071     0.40300
H959        H  0.91409813  0.75332596  0.68298447     0.39900
H960        H  0.88587803  0.72683888  0.72057066     0.34800
C961        C  0.78998777  0.85537912  0.58329206    -0.27000
C962        C  0.82372718  0.84026903  0.60145347    -0.15000
C963        C  0.84730700  0.82201872  0.56630926     0.35600
C964        C  0.83789655  0.82231361  0.51224685    -0.26400
C965        C  0.80548542  0.84087897  0.49249513    -0.15700
C966        C  0.77990159  0.85426750  0.52971612     0.36700
N967        N  0.74407821  0.86741689  0.51295858    -0.89900
H968        H  0.77147658  0.86816063  0.61111581     0.17800
H969        H  0.85632055  0.80816271  0.48583816     0.17800
N970        N  0.88128525  0.80457039  0.58521328    -0.88900
H971        H  0.72914068  0.87716443  0.54498802     0.35200
H972        H  0.73145616  0.84425228  0.50022341     0.40300
H973        H  0.89671242  0.82591961  0.59737295     0.39900
H974        H  0.89533985  0.79197051  0.55437545     0.34800
C975        C  0.79804997  0.51331014  0.87299637    -0.27000
C976        C  0.77037170  0.53108593  0.84020823    -0.15000
C977        C  0.76435065  0.51651859  0.79025163     0.35600
C978        C  0.78639447  0.48533819  0.77419459    -0.26400
C979        C  0.81410559  0.96905812  0.80853679    -0.15700
C980        C  0.81930267  0.48161068  0.85786434     0.36700
N981        N  0.84912443  0.96716530  0.89275756    -0.89900
H982        H  0.80363599  0.52451134  0.91089217     0.17800
H983        H  0.78174857  0.47466899  0.73560653     0.17800
N984        N  0.73547183  0.53266932  0.75638923    -0.88900
H985        H  0.84901796  0.97987417  0.92907778     0.35200
H986        H  0.87302249  0.97357869  0.87402255     0.40300
H987        H  0.71144343  0.52792063  0.77602409     0.39900
H988        H  0.73481165  0.51886927  0.72099712     0.34800
C989        C  0.74498426  0.70015857  0.82144371    -0.27000
C990        C  0.76319750  0.66425485  0.82943638    -0.15000
C991        C  0.80063418  0.66039736  0.82287254     0.35600
C992        C  0.81943936  0.69285305  0.81163339    -0.26400
C993        C  0.80156985  0.72909679  0.80698671    -0.15700
C994        C  0.76378017  0.73266614  0.80964034     0.36700
N995        N  0.74495919  0.76941419  0.80480149    -0.89900
H996        H  0.71625797  0.70307784  0.82760097     0.17800
H997        H  0.84847687  0.69012196  0.80950164     0.17800
N998        N  0.81961299  0.62381965  0.83065102    -0.88900
H999        H  0.71740750  0.76721644  0.80994955     0.35200
H1000       H  0.74821828  0.78045078  0.76576214     0.40300
H1001       H  0.81692839  0.61443830  0.87056905     0.39900
H1002       H  0.84706397  0.62579374  0.82416501     0.34800
C1003       C  0.53818461  0.53167065  0.30022166    -0.27000
C1004       C  0.57083218  0.53120270  0.27269337    -0.15000
C1005       C  0.57509787  0.00327321  0.24005025     0.35600
C1006       C  0.55230653  0.97362952  0.23698903    -0.26400
C1007       C  0.52178914  0.97114303  0.26932249    -0.15700
C1008       C  0.51176714  0.00204059  0.30020303     0.36700
N1009       N  0.48193017  0.50487536  0.32590955    -0.89900
H1010       H  0.53137076  0.55409773  0.32639157     0.17800
H1011       H  0.55917752  0.95153484  0.21034418     0.17800
N1012       N  0.60652088  0.00418586  0.20747376    -0.88900
H1013       H  0.46650339  0.52874641  0.31030185     0.35200
H1014       H  0.48463484  0.00749282  0.36878775     0.40300
H1015       H  0.60466714  0.52705895  0.17614173     0.39900
H1016       H  0.60877294  0.98095543  0.18396260     0.34800
C1017       C  0.56531313  0.78599357  0.22711399    -0.27000
C1018       C  0.56162437  0.75512610  0.26405685    -0.15000
C1019       C  0.53687691  0.75979024  0.30603475     0.35600
C1020       C  0.51835154  0.79532805  0.31161675    -0.26400
C1021       C  0.52347854  0.82693673  0.27620208    -0.15700
C1022       C  0.54631598  0.82116078  0.23223262     0.36700
N1023       N  0.55034543  0.85101214  0.19217969    -0.89900
H1024       H  0.58358012  0.78318910  0.19404533     0.17800
H1025       H  0.49890305  0.79735280  0.34300958     0.17800
N1026       N  0.53016516  0.72840080  0.34268116    -0.88900
H1027       H  0.57751326  0.85625325  0.19017415     0.35200
H1028       H  0.54268963  0.84171649  0.15554095     0.40300
H1029       H  0.51807875  0.70845089  0.32118335     0.39900
H1030       H  0.51179700  0.73658522  0.37174418     0.34800
C1031       C  0.72512219  0.61439693  0.07977842    -0.27000
C1032       C  0.69148543  0.60465482  0.09832821    -0.15000
C1033       C  0.66860607  0.58740425  0.06412644     0.35600
C1034       C  0.67776757  0.58433950  0.01077558    -0.26400
C1035       C  0.70982139  0.59776028  0.99018923    -0.15700
C1036       C  0.73534623  0.60914772  0.02681188     0.36700
N1037       N  0.77132989  0.61555562  0.01024662    -0.89900
H1038       H  0.74347040  0.62598304  0.10677364     0.17800
H1039       H  0.65937423  0.57134822  0.98553877     0.17800
N1040       N  0.63535129  0.57370003  0.08209530    -0.88900
H1041       H  0.78345450  0.58974703  0.99958436     0.35200
H1042       H  0.78643993  0.62390518  0.04189974     0.40300
H1043       H  0.61975000  0.59584024  0.09782732     0.39900
H1044       H  0.64117452  0.55255609  0.11219826     0.34800
C1045       C  0.74979050  0.49393545  0.33490299    -0.27000
C1046       C  0.71633424  0.49404442  0.30954859    -0.15000
C1047       C  0.69978366  0.96011290  0.30239572     0.35600
C1048       C  0.72111337  0.92628238  0.31377781    -0.26400
C1049       C  0.75457582  0.92658212  0.33898511    -0.15700
C1050       C  0.76853117  0.96150363  0.34850728     0.36700
N1051       N  0.80285198  0.96240477  0.37427518    -0.89900
H1052       H  0.75946102  0.52052571  0.34540621     0.17800
H1053       H  0.71045602  0.89944973  0.30681419     0.17800
N1054       N  0.66425185  0.95929259  0.28062810    -0.88900
H1055       H  0.80870331  0.99023287  0.37965634     0.35200
H1056       H  0.82244166  0.95145017  0.34891318     0.40300
H1057       H  0.64597567  0.96824141  0.30936241     0.39900
H1058       H  0.65873866  0.93162869  0.27352829     0.34800
C1059       C  0.69026805  0.75601521  0.34574502    -0.27000
C1060       C  0.70151295  0.73648346  0.30133383    -0.15000
C1061       C  0.73170239  0.74841890  0.27248396     0.35600
C1062       C  0.75095597  0.77802008  0.29063866    -0.26400
C1063       C  0.74031576  0.79632290  0.33636517    -0.15700
C1064       C  0.70867962  0.78626239  0.36263845     0.36700
N1065       N  0.69518662  0.80714859  0.40629157    -0.89900
H1066       H  0.66620112  0.74842517  0.36652272     0.17800
H1067       H  0.77504728  0.78589707  0.27018295     0.17800
N1068       N  0.74304547  0.73017129  0.22544489    -0.88900
H1069       H  0.67161569  0.79641581  0.42116960     0.35200
H1070       H  0.68833745  0.83487320  0.39141636     0.40300
H1071       H  0.75143199  0.70215863  0.23700363     0.39900
H1072       H  0.76530453  0.74253713  0.20868963     0.34800
C1073       C  0.59869928  0.60865445  0.77341391    -0.27000
C1074       C  0.59910796  0.64417062  0.74582811    -0.15000
C1075       C  0.63167665  0.66232593  0.74265927     0.35600
C1076       C  0.66198216  0.64591807  0.77093491    -0.26400
C1077       C  0.66073273  0.61180289  0.80191766    -0.15700
C1078       C  0.62898977  0.59234058  0.80137471     0.36700
N1079       N  0.62692294  0.55572447  0.82805983    -0.89900
H1080       H  0.57431464  0.59381784  0.77419429     0.17800
H1081       H  0.68629191  0.66077558  0.77028909     0.17800
N1082       N  0.63512231  0.69721619  0.71149996    -0.88900
H1083       H  0.63044757  0.55750541  0.86891722     0.35200
H1084       H  0.64763698  0.53769839  0.81414926     0.40300
H1085       H  0.61144548  0.70641291  0.69110793     0.39900
H1086       H  0.65430983  0.69191778  0.68225973     0.34800
C1087       C  0.47893277  0.58618157  0.74417578    -0.27000
C1088       C  0.49395338  0.59807700  0.69567972    -0.15000
C1089       C  0.48999608  0.57691502  0.65102094     0.35600
C1090       C  0.46934210  0.54527860  0.65488897    -0.26400
C1091       C  0.45232132  0.53451733  0.70285418    -0.15700
C1092       C  0.45840609  0.55472184  0.74835580     0.36700
N1093       N  0.44616725  0.03731997  0.80349570    -0.89900
H1094       H  0.48236491  0.60213207  0.77890076     0.17800
H1095       H  0.46540475  0.53016739  0.61954395     0.17800
N1096       N  0.50525899  0.58861910  0.60107381    -0.88900
H1097       H  0.43041942  0.05927537  0.81943834     0.35200
H1098       H  0.46846222  0.03075617  0.82847087     0.40300
H1099       H  0.52235190  0.56628664  0.58890323     0.39900
H1100       H  0.48446700  0.59368850  0.57306754     0.34800
C1101       C  0.47878312  0.80804728  0.69544423    -0.27000
C1102       C  0.44324898  0.80592261  0.71278239    -0.15000
C1103       C  0.43308815  0.77196195  0.73791886     0.35600
C1104       C  0.45711593  0.73953832  0.73896308    -0.26400
C1105       C  0.49088598  0.73995310  0.71362135    -0.15700
C1106       C  0.50288827  0.77569009  0.69701172     0.36700
N1107       N  0.53894639  0.77899243  0.67905635    -0.89900
H1108       H  0.48714088  0.83441217  0.67718913     0.17800
H1109       H  0.44842037  0.71391442  0.75837005     0.17800
N1110       N  0.39723244  0.76967481  0.75783863    -0.88900
H1111       H  0.55099410  0.79757457  0.70294721     0.35200
H1112       H  0.53797080  0.79108512  0.64005298     0.40300
H1113       H  0.39443034  0.78712974  0.78965056     0.39900
H1114       H  0.39331952  0.74227357  0.77321176     0.34800
C1115       C  0.56066973  0.66820729  0.47830105    -0.27000
C1116       C  0.59562373  0.65120116  0.47822554    -0.15000
C1117       C  0.61400783  0.64224951  0.52694883     0.35600
C1118       C  0.59709082  0.65117087  0.57478543    -0.26400
C1119       C  0.56162009  0.66721473  0.57519415    -0.15700
C1120       C  0.54320373  0.67557789  0.52603017     0.36700
N1121       N  0.50608315  0.68877077  0.52307981    -0.89900
H1122       H  0.54609216  0.67391742  0.44101544     0.17800
H1123       H  0.61139069  0.64465212  0.61214793     0.17800
N1124       N  0.64971051  0.62416401  0.52770829    -0.88900
H1125       H  0.50306475  0.71624370  0.53534136     0.35200
H1126       H  0.49138767  0.67100840  0.54794809     0.40300
H1127       H  0.64801990  0.59684378  0.51534535     0.39900
H1128       H  0.65991666  0.62097332  0.56659565     0.34800
C1129       C  0.85152970  0.89200492  0.27755250    -0.27000
C1130       C  0.85201980  0.85624036  0.30468281    -0.15000
C1131       C  0.88280593  0.83119352  0.30227675     0.35600
C1132       C  0.91316904  0.84310403  0.27526701    -0.26400
C1133       C  0.91352190  0.87954569  0.25051489    -0.15700
C1134       C  0.88186961  0.90411353  0.25038590     0.36700
N1135       N  0.87923704  0.94108224  0.22322657    -0.89900
H1136       H  0.82772317  0.91114379  0.27868618     0.17800
H1137       H  0.93702693  0.82395293  0.27415374     0.17800
N1138       N  0.88319370  0.79392121  0.32809682    -0.88900
H1139       H  0.85875506  0.94157690  0.19473513     0.35200
H1140       H  0.90243816  0.94647215  0.20206145     0.40300
H1141       H  0.86389732  0.77943729  0.30920269     0.39900
H1142       H  0.90791975  0.77899758  0.32275386     0.34800
C1143       C  0.04044301  0.79793742  0.24110131    -0.27000
C1144       C  0.01726568  0.81195588  0.19914057    -0.15000
C1145       C  0.01295984  0.78941740  0.15589434     0.35600
C1146       C  0.03329410  0.75481221  0.15371261    -0.26400
C1147       C  0.05910376  0.74226353  0.19314259    -0.15700
C1148       C  0.06129458  0.76347360  0.23855632     0.36700
N1149       N  0.08563661  0.75112631  0.28123626    -0.89900
H1150       H  0.04352047  0.81461326  0.27516308     0.17800
H1151       H  0.03054412  0.73909160  0.11864287     0.17800
N1152       N  0.99009624  0.80275939  0.11188060    -0.88900
H1153       H  0.07080603  0.74833828  0.31624022     0.35200
H1154       H  0.10340213  0.77216206  0.28564698     0.40300
H1155       H  0.97119309  0.78293278  0.10695789     0.39900
H1156       H  0.00571284  0.80439446  0.07753362     0.34800
C1157       C  0.05635751  0.95087578  0.23182732    -0.27000
C1158       C  0.02208379  0.95519514  0.20779245    -0.15000
C1159       C  0.00840267  0.99234672  0.19107328     0.35600
C1160       C  0.02774089  0.51921956  0.19529188    -0.26400
C1161       C  0.06313043  0.51577232  0.21470084    -0.15700
C1162       C  0.07794460  0.98125080  0.23466382     0.36700
N1163       N  0.11366158  0.97420736  0.25575817    -0.89900
H1164       H  0.06736663  0.92401541  0.24894425     0.17800
H1165       H  0.01551443  0.54681064  0.18215015     0.17800
N1166       N  0.97273754  0.99906660  0.16979749    -0.88900
H1167       H  0.12738217  0.95413226  0.23331646     0.35200
H1168       H  0.11197701  0.96260612  0.29481469     0.40300
H1169       H  0.97440468  0.01178973  0.13134262     0.39900
H1170       H  0.95691556  0.51064065  0.19785077     0.34800
C1171       C  0.96920932  0.89364297  0.03161206    -0.27000
C1172       C  0.94963820  0.88743898  0.07852970    -0.15000
C1173       C  0.91426924  0.87627718  0.07510997     0.35600
C1174       C  0.90025125  0.86848070  0.02571745    -0.26400
C1175       C  0.92032902  0.87331397  0.97924947    -0.15700
C1176       C  0.95473733  0.88711609  0.98203011     0.36700
N1177       N  0.97607471  0.89322291  0.93550283    -0.89900
H1178       H  0.99629870  0.90253248  0.03355409     0.17800
H1179       H  0.87348513  0.85869535  0.02361113     0.17800
N1180       N  0.89216285  0.87369073  0.12138858    -0.88900
H1181       H  0.96233755  0.91361958  0.90980583     0.35200
H1182       H  0.97932015  0.86795856  0.91642086     0.40300
H1183       H  0.88388706  0.84620930  0.12607874     0.39900
H1184       H  0.86933686  0.89218493  0.11471187     0.34800
loop_ 
_geom_bond_atom_site_label_1 
_geom_bond_atom_site_label_2 
_geom_bond_distance 
_geom_bond_site_symmetry_2 
_ccdc_geom_bond_type 
C1            C2   1.539   1_455  S
C1            C7   1.552       .  S
C1            C5   1.542   1_455  S
C1          C566   1.541       .  S
C2            H9   1.086       .  S
C2            C3   1.363       .  D
C3            C4   1.537       .  S
C3          C580   1.482       .  S
C4            C8   1.532   1_655  S
C4            C6   1.532       .  S
C4           H10   1.109       .  S
C5           H11   1.086       .  S
C5            C6   1.370       .  D
C6          C541   1.486       .  S
C7           H12   1.081       .  S
C7            C8   1.366       .  D
C8          C552   1.490       .  S
C13          C14   1.547       .  S
C13          C19   1.545       .  S
C13          C17   1.543       .  S
C13         C513   1.546       .  S
C14          H21   1.081       .  S
C14          C15   1.362       .  D
C15          C16   1.534       .  S
C15         C496   1.485       .  S
C16          C20   1.536       .  S
C16          C18   1.537       .  S
C16          H22   1.111       .  S
C17          H23   1.086       .  S
C17          C18   1.373       .  D
C18         C482   1.488       .  S
C19          H24   1.084       .  S
C19          C20   1.364       .  D
C20         C527   1.483       .  S
O25         Ni31   1.925       .  S
O25          C46   1.270       .  A
O26         Ni49   1.907       .  S
O26          C35   1.266       .  A
O27         Ni31   1.921       .  S
O27         Ni49   1.918       .  S
O27         Ni43   1.925       .  S
O27          H50   0.966       .  S
C28          O45   1.276       .  A
C28          O37   1.279       .  A
C28         C426   1.491       .  S
O29         Ni48   1.934       .  S
O29          C35   1.270       .  A
O30         Ni48   1.911       .  S
O30          C32   1.269       .  A
Ni31         O34   1.930       .  S
Ni31         O36   1.907       .  S
C32          O42   1.276       .  A
C32         C468   1.490       .  S
O33         Ni49   1.913       .  S
O33          C39   1.270       .  A
O34          C39   1.272       .  A
C35         C440   1.474       .  S
O36          C38   1.270       .  A
O37         Ni48   1.928       .  S
C38          O44   1.276       .  A
C38         C412   1.491       .  S
C39         C454   1.472   1_545  S
H40          O41   0.966       .  S
O41         Ni49   1.908       .  S
O41         Ni43   1.901       .  S
O41         Ni48   1.915       .  S
O42         Ni43   1.935       .  S
Ni43         O47   1.909       .  S
Ni43         O45   1.915       .  S
O44         Ni49   1.947       .  S
C46          O47   1.268       .  A
C46         C524   1.471       .  S
C51          C52   1.536       .  S
C51          C57   1.530       .  S
C51          C55   1.541       .  S
C51         C443   1.536       .  S
C52          H59   1.086       .  S
C52          C53   1.361       .  D
C53          C54   1.542       .  S
C53         C398   1.484       .  S
C54          C58   1.557       .  S
C54          C56   1.547       .  S
C54          H60   1.109       .  S
C55          H61   1.084       .  S
C55          C56   1.365       .  D
C56         C485   1.487       .  S
C57          H62   1.086       .  S
C57          C58   1.371       .  D
C58         C384   1.506       .  S
O63         Ni69   1.927       .  S
O63          C84   1.269       .  A
O64         Ni87   1.900       .  S
O64          C73   1.266       .  A
O65         Ni69   1.914       .  S
O65         Ni87   1.889       .  S
O65         Ni81   1.910       .  S
O65          H88   0.967       .  S
C66          O83   1.269       .  A
C66          O75   1.270       .  A
C66         C401   1.479       .  S
O67         Ni86   1.914       .  S
O67          C73   1.269       .  A
O68         Ni86   1.896       .  S
O68          C70   1.270       .  A
Ni69         O72   1.932       .  S
Ni69         O74   1.914       .  S
C70          O80   1.279       .  A
C70         C356   1.493       .  S
O71         Ni87   1.922       .  S
O71          C77   1.278       .  A
O72          C77   1.278       .  A
C73         C583   1.466       .  S
O74          C76   1.269       .  A
O75         Ni86   1.931       .  S
C76          O82   1.273       .  A
C76         C387   1.500       .  S
C77         C934   1.479       .  S
H78          O79   0.964       .  S
O79         Ni87   1.941       .  S
O79         Ni81   1.912       .  S
O79         Ni86   1.918       .  S
O80         Ni81   1.953       .  S
Ni81         O85   1.901       .  S
Ni81         O83   1.919       .  S
O82         Ni87   1.931       .  S
C84          O85   1.264       .  A
C84         C370   1.462       .  S
C89          C90   1.520       .  S
C89          C95   1.541       .  S
C89          C93   1.537       .  S
C89         C373   1.528       .  S
C90          H97   1.087       .  S
C90          C91   1.362       .  D
C91          C92   1.556       .  S
C91         C471   1.493       .  S
C92          C96   1.547       .  S
C92          C94   1.548       .  S
C92          H98   1.110       .  S
C93          H99   1.084       .  S
C93          C94   1.364       .  D
C94         C538   1.484       .  S
C95         H100   1.086       .  S
C95          C96   1.368       .  D
C96         C457   1.495       .  S
C101        C102   1.542       .  S
C101        C107   1.542       .  S
C101        C105   1.525       .  S
C101        C429   1.538       .  S
C102        H109   1.083       .  S
C102        C103   1.362       .  D
C103        C104   1.543       .  S
C103        C331   1.484       .  S
C104        C108   1.553       .  S
C104        C106   1.549       .  S
C104        H110   1.107       .  S
C105        H111   1.087       .  S
C105        C106   1.361       .  D
C106        C314   1.490       .  S
C107        H112   1.085       .  S
C107        C108   1.377       .  D
C108        C415   1.510       .  S
C113        C114   1.539   1_455  S
C113        C119   1.535       .  S
C113        C117   1.553       .  S
C113        C345   1.546   1_455  S
C114        H121   1.084       .  S
C114        C115   1.368   1_655  D
C115        C116   1.541       .  S
C115        C359   1.499   1_455  S
C116        C120   1.541       .  S
C116        C118   1.537       .  S
C116        H122   1.108       .  S
C117        H123   1.082       .  S
C117        C118   1.372       .  D
C118        C286   1.487       .  S
C119        H124   1.086       .  S
C119        C120   1.360       .  D
C120        C300   1.490       .  S
O125       Ni131   1.902       .  S
O125        C146   1.265       .  A
O126       Ni149   1.917       .  S
O126        C135   1.272       .  A
O127       Ni131   1.908       .  S
O127       Ni149   1.917       .  S
O127       Ni143   1.940       .  S
O127        H150   0.966       .  S
C128        O145   1.275       .  A
C128        O137   1.278       .  A
C128        C569   1.488       .  S
O129       Ni148   1.932       .  S
O129        C135   1.273       .  A
O130       Ni148   1.928       .  S
O130        C132   1.272       .  A
Ni131       O134   1.913       .  S
Ni131       O136   1.902       .  S
C132        O142   1.271       .  A
C132        C275   1.488       .  S
O133       Ni149   1.928       .  S
O133        C139   1.269       .  A
O134        C139   1.264       .  A
C135        C244   1.480       .  S
O136        C138   1.275       .  A
O137       Ni148   1.932       .  S
C138        O144   1.287       .  A
C138        C555   1.495       .  S
C139        C261   1.492       .  S
H140        O141   0.967       .  S
O141       Ni149   1.900       .  S
O141       Ni143   1.900       .  S
O141       Ni148   1.910       .  S
O142       Ni143   1.929       .  S
Ni143       O147   1.917       .  S
Ni143       O145   1.914       .  S
O144       Ni149   1.968       .  S
C146        O147   1.269       .  A
C146        C303   1.476   1_554  S
C151        C152   1.547       .  S
C151        C157   1.540       .  S
C151        C155   1.538       .  S
C151        C216   1.549       .  S
C152        H159   1.082       .  S
C152        C153   1.372       .  D
C153        C154   1.546       .  S
C153        C289   1.487       .  S
C154        C158   1.550       .  S
C154        C156   1.532       .  S
C154        H160   1.107       .  S
C155        H161   1.086       .  S
C155        C156   1.360       .  D
C156        C233   1.485       .  S
C157        H162   1.085       .  S
C157        C158   1.370       .  D
C158        C247   1.508       .  S
O163       Ni169   1.902       .  S
O163        C184   1.260       .  A
O164       Ni187   1.947       .  S
O164        C173   1.279       .  A
O165       Ni169   1.896       .  S
O165       Ni187   1.918       .  S
O165       Ni181   1.920       .  S
O165        H188   0.966       .  S
C166        O183   1.277       .  A
C166        O175   1.277       .  A
C166       C1091   1.492       .  S
O167       Ni186   1.916       .  S
O167        C173   1.267       .  A
O168       Ni186   1.905       .  S
O168        C170   1.267       .  A
Ni169       O172   1.896       .  S
Ni169       O174   1.897       .  S
C170        O180   1.274       .  A
C170        C822   1.482       .  S
O171       Ni187   1.965       .  S
O171        C177   1.290       .  A
O172        C177   1.276       .  A
C173        C202   1.489       .  S
O174        C176   1.265       .  A
O175       Ni186   1.925       .  S
C176        O182   1.275       .  A
C176        C510   1.479       .  S
C177        C219   1.501       .  S
H178        O179   0.966       .  S
O179       Ni187   1.935       .  S
O179       Ni181   1.920       .  S
O179       Ni186   1.906       .  S
O180       Ni181   1.938       .  S
Ni181       O185   1.939       .  S
Ni181       O183   1.919       .  S
O182       Ni187   1.945       .  S
C184        O185   1.269       .  A
C184        C328   1.477       .  S
C189        C190   1.538       .  S
C189        C195   1.531       .  S
C189        C193   1.532       .  S
C189        C258   1.533       .  S
C190        H197   1.083       .  S
C190        C191   1.369       .  D
C191        C192   1.552       .  S
C191        C317   1.485       .  S
C192        C196   1.565       .  S
C192        C194   1.552       .  S
C192        H198   1.108       .  S
C193        H199   1.087       .  S
C193        C194   1.362       .  D
C194        C272   1.501       .  S
C195        H200   1.086       .  S
C195        C196   1.367       .  D
C196        C205   1.516   1_554  S
C201        C202   1.406       .  A
C201        C206   1.411       .  A
C201        H208   1.084       .  S
C202        C203   1.406       .  A
C203        C204   1.414       .  A
C203        N210   1.438       .  S
C204        C205   1.418       .  A
C204        H209   1.082       .  S
C205        C206   1.412       .  A
C206        N207   1.430   1_556  S
N207        H211   1.046   1_554  S
N207        H212   1.046   1_554  S
N210        H213   1.046       .  S
N210        H214   1.046       .  S
C215        C216   1.421       .  A
C215        C220   1.423       .  A
C215        H222   1.077       .  S
C216        C217   1.427       .  A
C217        C218   1.389       .  A
C217        N224   1.437       .  S
C218        C219   1.405       .  A
C218        H223   1.084       .  S
C219        C220   1.411       .  A
C220        N221   1.437       .  S
N221        H225   1.045       .  S
N221        H226   1.046       .  S
N224        H227   1.041       .  S
N224        H228   1.040       .  S
C229        C230   1.403       .  A
C229        C234   1.407       .  A
C229        H828   1.084       .  S
C230        C762   1.481   1_545  S
C230        C231   1.413       .  A
C231        C232   1.408       .  A
C231        N238   1.437       .  S
C232        C233   1.401       .  A
C232        H237   1.082       .  S
C233        C234   1.411       .  A
C234        N235   1.437       .  S
N235        H239   1.046       .  S
N235        H240   1.045       .  S
H236        C821   1.084       .  S
N238        H242   1.046       .  S
N238        H833   1.046   1_545  S
H241        N830   1.045       .  S
C243        C244   1.402       .  A
C243        C248   1.406       .  A
C243        H250   1.084       .  S
C244        C245   1.406       .  A
C245        C246   1.411       .  A
C245        N252   1.438       .  S
C246        C247   1.416       .  A
C246        H251   1.082       .  S
C247        C248   1.414       .  A
C248        N249   1.430       .  S
N249        H253   1.046       .  S
N249        H254   1.046       .  S
N252        H255   1.045       .  S
N252        H256   1.046       .  S
C257        C258   1.413       .  A
C257        C262   1.416       .  A
C257        H264   1.077       .  S
C258        C259   1.414       .  A
C259        C260   1.390       .  A
C259        N266   1.435       .  S
C260        C261   1.405       .  A
C260        H265   1.084       .  S
C261        C262   1.415       .  A
C262        N263   1.437       .  S
N263        H267   1.045       .  S
N263        H268   1.045       .  S
N266        H269   1.046       .  S
N266        H270   1.046       .  S
C271        C272   1.407       .  A
C271        C276   1.405       .  A
C271        H278   1.084       .  S
C272        C273   1.412       .  A
C273        C866   1.414       .  A
C273        N280   1.430       .  S
C274        C275   1.406       .  A
C274        C865   1.416   1_545  A
C274        H279   1.083       .  S
C275        C868   1.411   1_545  A
C276        C867   1.413       .  A
C276        N277   1.433       .  S
N277        H281   1.045       .  S
N277        H874   1.046       .  S
N280        H283   1.045       .  S
N280        H876   1.045       .  S
H282        N869   1.045   1_565  S
H284        N872   1.045   1_545  S
C285        C286   1.402       .  A
C285        C290   1.402       .  A
C285        H292   1.082       .  S
C286        C287   1.413       .  A
C287        C288   1.405       .  A
C287        N294   1.432       .  S
C288        C289   1.404       .  A
C288        H293   1.083       .  S
C289        C290   1.414       .  A
C290        N291   1.433       .  S
N291        H295   1.045       .  S
N291        H296   1.043       .  S
N294        H297   1.046       .  S
N294        H298   1.045       .  S
C299        C300   1.400       .  A
C299        C304   1.403       .  A
C299        H306   1.080       .  S
C300        C301   1.416       .  A
C301        C302   1.404       .  A
C301        N308   1.431       .  S
C302        C303   1.400       .  A
C302        H307   1.084   1_556  S
C303        C304   1.413       .  A
C304        N305   1.438       .  S
N305        H309   1.046       .  S
N305        H310   1.046       .  S
N308        H311   1.046   1_455  S
N308        H312   1.046       .  S
C313        C314   1.401       .  A
C313        C318   1.404       .  A
C313        H320   1.083       .  S
C314        C315   1.415       .  A
C315        C316   1.407       .  A
C315        N322   1.438       .  S
C316        C317   1.400       .  A
C316        H321   1.082       .  S
C317        C318   1.419       .  A
C318        N319   1.438       .  S
N319        H323   1.046       .  S
N319        H324   1.043       .  S
N322        H325   1.045       .  S
N322        H326   1.046       .  S
C327        C328   1.404       .  A
C327        C332   1.402       .  A
C327        H334   1.084       .  S
C328        C329   1.407       .  A
C329        C330   1.411       .  A
C329        N336   1.437       .  S
C330        C331   1.406       .  A
C330        H335   1.082       .  S
C331        C332   1.415       .  A
C332        N333   1.439       .  S
N333        H337   1.046       .  S
N333        H338   1.043       .  S
N336        H339   1.045       .  S
N336        H340   1.046       .  S
C341        C342   1.393       .  A
C341        C346   1.392   1_565  A
C341        H348   1.082       .  S
C342        C669   1.480       .  S
C342        C935   1.415       .  A
C343        C934   1.413       .  A
C343        C936   1.411       .  A
C343        N350   1.438       .  S
C344        C345   1.416   1_455  A
C344        C935   1.412   1_445  A
C344        H349   1.077       .  S
C345        C346   1.432       .  A
C346        N347   1.435       .  S
N347        H351   1.041       .  S
N347        H352   1.039       .  S
N350        H353   1.044       .  S
N350        H354   1.046   1_655  S
C355        C356   1.407       .  A
C355        C360   1.403       .  A
C355        H362   1.084       .  S
C356        C357   1.419       .  A
C357        C358   1.402       .  A
C357        N364   1.433       .  S
C358        C359   1.408       .  A
C358        H363   1.083       .  S
C359        C360   1.412       .  A
C360        N361   1.432   1_655  S
N361        H365   1.046       .  S
N361        H366   1.046       .  S
N364        H367   1.045       .  S
N364        H368   1.045       .  S
C369        C370   1.397       .  A
C369        C374   1.400       .  A
C369        H376   1.084       .  S
C370        C371   1.405       .  A
C371        C372   1.403       .  A
C371        N378   1.439       .  S
C372        C373   1.412       .  A
C372        H377   1.078       .  S
C373        C374   1.416       .  A
C374        N375   1.433       .  S
N375        H379   1.046       .  S
N375        H380   1.046       .  S
N378        H381   1.046       .  S
N378        H382   1.046       .  S
C383        C384   1.407       .  A
C383        C388   1.407   1_545  A
C383        H390   1.083       .  S
C384        C385   1.414       .  A
C385        C386   1.415   1_545  A
C385        N392   1.436       .  S
C386        C979   1.409       .  A
C386        H391   1.083       .  S
C387        C978   1.410       .  A
C387        C980   1.416       .  A
C388        C979   1.418       .  A
C388        N981   1.439       .  S
N389        C980   1.439       .  S
N389        H393   1.046       .  S
N389        H394   1.044       .  S
N392        H395   1.044       .  S
N392        H396   1.045       .  S
C397        C398   1.406       .  A
C397        C402   1.408       .  A
C397        H404   1.084       .  S
C398        C399   1.408       .  A
C399        C400   1.409       .  A
C399        N406   1.438       .  S
C400        C401   1.406       .  A
C400        H405   1.084       .  S
C401        C402   1.409       .  A
C402        N403   1.437       .  S
N403        H407   1.046       .  S
N403        H408   1.045       .  S
N406        H409   1.046       .  S
N406        H410   1.046       .  S
C411        C412   1.404       .  A
C411       C1008   1.407       .  A
C411        H418   1.084       .  S
C412       C1005   1.413       .  A
C413        C414   1.410       .  A
C413       C1004   1.414       .  A
C413        N420   1.435       .  S
C414        C415   1.410       .  A
C414        H419   1.083       .  S
C415        C416   1.416       .  A
C416       C1003   1.408       .  A
C416       N1009   1.430       .  S
N417       C1008   1.430       .  S
N417        H421   1.046       .  S
N417       H1014   1.045       .  S
N420        H424   1.046       .  S
N420       H1015   1.044       .  S
H422       N1009   1.045       .  S
H423       N1012   1.043       .  S
C425        C426   1.405       .  A
C425        C430   1.402       .  A
C425        H432   1.083       .  S
C426        C427   1.414       .  A
C427        C428   1.408       .  A
C427        N434   1.439       .  S
C428        C429   1.413       .  A
C428        H433   1.078       .  S
C429        C430   1.415       .  A
C430        N431   1.433       .  S
N431        H435   1.046       .  S
N431        H436   1.046       .  S
N434        H437   1.046       .  S
N434        H438   1.046       .  S
C439        C440   1.400       .  A
C439        C444   1.408       .  A
C439        H446   1.084       .  S
C440        C441   1.409       .  A
C441        C442   1.396       .  A
C441        N448   1.431       .  S
C442        C443   1.409   1_554  A
C442        H447   1.080   1_554  S
C443        C444   1.423   1_556  A
C444        N445   1.438       .  S
N445        H449   1.045       .  S
N445        H450   1.046       .  S
N448        H451   1.046       .  S
N448        H452   1.042       .  S
C453        C454   1.399       .  A
C453       C1050   1.405       .  A
C453        H460   1.084   1_565  S
C454       C1047   1.411       .  A
C455        C456   1.413       .  A
C455       C1046   1.414       .  A
C455        N462   1.437       .  S
C456        C457   1.403       .  A
C456        H461   1.084       .  S
C457        C458   1.416       .  A
C458       C1045   1.410       .  A
C458        N459   1.438       .  S
N459        H463   1.046       .  S
N459        H464   1.045       .  S
N462        H465   1.045       .  S
N462        H466   1.046       .  S
C467        C468   1.403       .  A
C467        C472   1.404       .  A
C467        H474   1.084       .  S
C468        C469   1.417       .  A
C469        C470   1.415       .  A
C469        N476   1.437       .  S
C470        C471   1.403       .  A
C470        H475   1.084       .  S
C471        C472   1.415       .  A
C472        N473   1.439       .  S
N473        H477   1.046       .  S
N473        H478   1.046       .  S
N476        H479   1.046       .  S
N476        H480   1.046       .  S
C481        C482   1.404       .  A
C481        C486   1.401       .  A
C481        H488   1.084       .  S
C482        C483   1.419       .  A
C483        C484   1.406       .  A
C483        N490   1.439       .  S
C484        C485   1.403       .  A
C484        H489   1.083       .  S
C485        C486   1.414       .  A
C486        N487   1.433       .  S
N487        H491   1.044       .  S
N487        H492   1.044       .  S
N490        H493   1.043       .  S
N490        H494   1.046       .  S
C495        C496   1.400       .  A
C495        C500   1.404       .  A
C495        H502   1.084       .  S
C496        C497   1.407       .  A
C497        C498   1.408       .  A
C497        N504   1.431       .  S
C498        C499   1.409       .  A
C498        H503   1.083       .  S
C499        C758   1.497       .  S
C499        C500   1.419       .  A
C500       N1093   1.433       .  S
N501       C1092   1.433       .  S
N501        H505   1.046       .  S
N501        H506   1.046       .  S
N504        H507   1.045       .  S
N504        H508   1.045       .  S
C509        C510   1.403       .  A
C509        C514   1.408       .  A
C509        H516   1.084       .  S
C510        C511   1.405       .  A
C511        C512   1.409       .  A
C511        N518   1.438       .  S
C512        C513   1.415       .  A
C512        H517   1.077       .  S
C513        C514   1.416       .  A
C514        N515   1.433       .  S
N515        H519   1.046       .  S
N515        H520   1.046       .  S
N518        H521   1.045       .  S
N518        H522   1.045       .  S
C523        C524   1.401       .  A
C523        C528   1.401       .  A
C523        H530   1.084       .  S
C524        C525   1.409       .  A
C525        C526   1.405       .  A
C525        N532   1.438       .  S
C526        C527   1.403       .  A
C526        H531   1.084       .  S
C527        C528   1.416       .  A
C528        N529   1.433       .  S
N529        H533   1.043       .  S
N529        H534   1.044       .  S
N532        H535   1.045       .  S
N532        H536   1.046       .  S
C537        C538   1.401       .  A
C537        C542   1.405       .  A
C537        H544   1.083       .  S
C538        C539   1.410       .  A
C539        C540   1.405       .  A
C539        N546   1.438       .  S
C540        C541   1.404       .  A
C540        H545   1.084       .  S
C541        C542   1.420       .  A
C542        N543   1.439       .  S
N543        H547   1.046       .  S
N543        H548   1.042       .  S
N546        H549   1.046       .  S
N546        H550   1.046       .  S
C551        C552   1.404       .  A
C551        C556   1.410       .  A
C551        H558   1.084       .  S
C552        C553   1.408       .  A
C553        C554   1.402       .  A
C553        N560   1.432   1_455  S
C554        C555   1.409       .  A
C554        H559   1.084       .  S
C555        C556   1.417       .  A
C556        N557   1.437       .  S
N557        H561   1.046       .  S
N557        H562   1.046       .  S
N560        H563   1.046       .  S
N560        H564   1.046   1_655  S
C565        C566   1.408       .  A
C565        C570   1.401       .  A
C565        H572   1.076       .  S
C566        C567   1.421       .  A
C567       C1160   1.409       .  A
C567        N574   1.433   1_455  S
C568        C569   1.404       .  A
C568       C1159   1.408   1_545  A
C568        H573   1.084       .  S
C569       C1162   1.412   1_545  A
C570       C1161   1.413       .  A
C570        N571   1.434       .  S
N571        H575   1.046       .  S
N571        H576   1.046       .  S
N574        H577   1.046       .  S
N574       H1170   1.045       .  S
H578       N1166   1.045   1_545  S
C579        C580   1.407       .  A
C579        C584   1.399   1_554  A
C579        H586   1.083       .  S
C580        C581   1.410       .  A
C581        C582   1.396       .  A
C581        N588   1.432       .  S
C582        C583   1.399   1_554  A
C582        H587   1.084       .  S
C583        C584   1.411       .  A
C584        N585   1.433       .  S
N585        H589   1.045       .  S
N585        H590   1.045       .  S
N588        H591   1.046       .  S
N588        H592   1.045       .  S
C593        C594   1.541   1_455  S
C593        C599   1.552       .  S
C593        C597   1.542   1_455  S
C593       C1158   1.540       .  S
C594        H601   1.086       .  S
C594        C595   1.364       .  D
C595        C596   1.535       .  S
C595       C1172   1.482       .  S
C596        C600   1.535   1_655  S
C596        C598   1.531       .  S
C596        H602   1.109       .  S
C597        H603   1.086       .  S
C597        C598   1.369       .  D
C598       C1133   1.481       .  S
C599        H604   1.081       .  S
C599        C600   1.364       .  D
C600       C1144   1.495       .  S
C605        C606   1.545       .  S
C605        C611   1.546       .  S
C605        C609   1.543       .  S
C605       C1105   1.548       .  S
C606        H613   1.082       .  S
C606        C607   1.360       .  D
C607        C608   1.529       .  S
C607       C1088   1.479       .  S
C608        C612   1.538       .  S
C608        C610   1.534       .  S
C608        H614   1.111       .  S
C609        H615   1.086       .  S
C609        C610   1.373       .  D
C610       C1074   1.484       .  S
C611        H616   1.081       .  S
C611        C612   1.368       .  D
C612       C1119   1.489       .  S
O617       Ni623   1.919       .  S
O617        C638   1.269       .  A
O618       Ni641   1.906       .  S
O618        C627   1.267       .  A
O619       Ni623   1.922       .  S
O619       Ni641   1.914       .  S
O619       Ni635   1.934       .  S
O619        H642   0.967       .  S
C620        O637   1.276       .  A
C620        O629   1.280       .  A
C620       C1018   1.503       .  S
O621       Ni640   1.939       .  S
O621        C627   1.272       .  A
O622       Ni640   1.906       .  S
O622        C624   1.268       .  A
Ni623       O626   1.934       .  S
Ni623       O628   1.908       .  S
C624        O634   1.279       .  A
C624       C1060   1.493       .  S
O625       Ni641   1.929       .  S
O625        C631   1.273       .  A
O626        C631   1.270       .  A
C627       C1032   1.476       .  S
O628        C630   1.271       .  A
O629       Ni640   1.939       .  S
C630        O636   1.280       .  A
C630       C1004   1.497       .  S
C631       C1046   1.483       .  S
H632        O633   0.966       .  S
O633       Ni641   1.919       .  S
O633       Ni635   1.905       .  S
O633       Ni640   1.919       .  S
O634       Ni635   1.943       .  S
Ni635       O639   1.911       .  S
Ni635       O637   1.921       .  S
O636       Ni641   1.961       .  S
C638        O639   1.269       .  A
C638       C1116   1.473       .  S
C643        C644   1.536       .  S
C643        C649   1.526       .  S
C643        C647   1.538       .  S
C643       C1035   1.534       .  S
C644        H651   1.086       .  S
C644        C645   1.361       .  D
C645        C646   1.543       .  S
C645        C990   1.483       .  S
C646        C650   1.559       .  S
C646        C648   1.550       .  S
C646        H652   1.109       .  S
C647        H653   1.085       .  S
C647        C648   1.366       .  D
C648       C1077   1.488       .  S
C649        H654   1.086       .  S
C649        C650   1.370       .  D
C650        C976   1.507       .  S
O655       Ni661   1.927       .  S
O655        C676   1.271       .  A
O656       Ni679   1.894       .  S
O656        C665   1.264       .  A
O657       Ni661   1.915       .  S
O657       Ni679   1.886       .  S
O657       Ni673   1.909       .  S
O657        H680   0.967       .  S
C658        O675   1.270       .  A
C658        O667   1.270       .  A
C658        C993   1.484       .  S
O659       Ni678   1.921       .  S
O659        C665   1.270       .  A
O660       Ni678   1.903       .  S
O660        C662   1.273       .  A
Ni661       O664   1.932       .  S
Ni661       O666   1.922       .  S
C662        O672   1.283       .  A
C662        C948   1.502       .  S
O663       Ni679   1.923       .  S
O663        C669   1.279       .  A
O664        C669   1.278       .  A
C665       C1175   1.467       .  S
O666        C668   1.271       .  A
O667       Ni678   1.931       .  S
C668        O674   1.271       .  A
C668        C979   1.501       .  S
H670        O671   0.964       .  S
O671       Ni679   1.941       .  S
O671       Ni673   1.913       .  S
O671       Ni678   1.916       .  S
O672       Ni673   1.962       .  S
Ni673       O677   1.905       .  S
Ni673       O675   1.923       .  S
O674       Ni679   1.928       .  S
C676        O677   1.267       .  A
C676        C962   1.468       .  S
C681        C682   1.523       .  S
C681        C687   1.538       .  S
C681        C685   1.539       .  S
C681        C965   1.531       .  S
C682        H689   1.086       .  S
C682        C683   1.365       .  D
C683        C684   1.552       .  S
C683       C1063   1.493       .  S
C684        C688   1.541       .  S
C684        C686   1.545       .  S
C684        H690   1.111       .  S
C685        H691   1.084       .  S
C685        C686   1.366       .  D
C686       C1130   1.483       .  S
C687        H692   1.086       .  S
C687        C688   1.363       .  D
C688       C1049   1.483       .  S
C693        C694   1.544       .  S
C693        C699   1.541       .  S
C693        C697   1.529       .  S
C693       C1021   1.546       .  S
C694        H701   1.083       .  S
C694        C695   1.364       .  D
C695        C696   1.540       .  S
C695        C923   1.482       .  S
C696        C700   1.549       .  S
C696        C698   1.545       .  S
C696        H702   1.107       .  S
C697        H703   1.087       .  S
C697        C698   1.364       .  D
C698        C906   1.490       .  S
C699        H704   1.085       .  S
C699        C700   1.377       .  D
C700       C1007   1.505       .  S
C705        C706   1.545   1_455  S
C705        C711   1.536       .  S
C705        C709   1.553       .  S
C705        C937   1.550   1_455  S
C706        H713   1.085       .  S
C706        C707   1.371   1_655  D
C707        C708   1.540       .  S
C707        C951   1.501   1_455  S
C708        C712   1.539       .  S
C708        C710   1.540       .  S
C708        H714   1.109       .  S
C709        H715   1.081       .  S
C709        C710   1.370       .  D
C710        C878   1.491       .  S
C711        H716   1.086       .  S
C711        C712   1.360       .  D
C712        C892   1.485       .  S
O717       Ni723   1.901       .  S
O717        C738   1.265       .  A
O718       Ni741   1.919       .  S
O718        C727   1.272       .  A
O719       Ni723   1.913       .  S
O719       Ni741   1.920       .  S
O719       Ni735   1.944       .  S
O719        H742   0.966       .  S
C720        O737   1.277       .  A
C720        O729   1.275       .  A
C720       C1161   1.489       .  S
O721       Ni740   1.925       .  S
O721        C727   1.271       .  A
O722       Ni740   1.924       .  S
O722        C724   1.271       .  A
Ni723       O726   1.916       .  S
Ni723       O728   1.899       .  S
C724        O734   1.273       .  A
C724        C867   1.493       .  S
O725       Ni741   1.932       .  S
O725        C731   1.270       .  A
O726        C731   1.266       .  A
C727        C836   1.482       .  S
O728        C730   1.272       .  A
O729       Ni740   1.927       .  S
C730        O736   1.287       .  A
C730       C1147   1.500       .  S
C731        C853   1.495       .  S
H732        O733   0.967       .  S
O733       Ni741   1.909       .  S
O733       Ni735   1.903       .  S
O733       Ni740   1.917       .  S
O734       Ni735   1.938       .  S
Ni735       O739   1.912       .  S
Ni735       O737   1.922       .  S
O736       Ni741   1.974       .  S
C738        O739   1.268       .  A
C738        C895   1.469   1_554  S
C743        C744   1.546       .  S
C743        C749   1.537       .  S
C743        C747   1.537       .  S
C743        C808   1.549       .  S
C744        H751   1.083       .  S
C744        C745   1.375       .  D
C745        C746   1.548       .  S
C745        C881   1.490       .  S
C746        C750   1.554       .  S
C746        C748   1.535       .  S
C746        H752   1.104       .  S
C747        H753   1.087       .  S
C747        C748   1.360       .  D
C748        C825   1.490       .  S
C749        H754   1.083       .  S
C749        C750   1.370       .  D
C750        C839   1.515       .  S
O755       Ni761   1.899       .  S
O755        C776   1.259       .  A
O756       Ni779   1.937       .  S
O756        C765   1.276       .  A
O757       Ni761   1.894       .  S
O757       Ni779   1.915       .  S
O757       Ni773   1.924       .  S
O757        H780   0.966       .  S
C758        O775   1.281   1_545  A
C758        O767   1.278   1_545  A
O759       Ni778   1.912       .  S
O759        C765   1.266       .  A
O760       Ni778   1.907       .  S
O760        C762   1.268       .  A
Ni761       O764   1.902       .  S
Ni761       O766   1.890       .  S
C762        O772   1.273       .  A
O763       Ni779   1.963       .  S
O763        C769   1.289       .  A
O764        C769   1.277       .  A
C765        C794   1.481       .  S
O766        C768   1.262       .  A
O767       Ni778   1.923       .  S
C768        O774   1.276       .  A
C768       C1102   1.479       .  S
C769        C811   1.509       .  S
H770        O771   0.966       .  S
O771       Ni779   1.937       .  S
O771       Ni773   1.914       .  S
O771       Ni778   1.904       .  S
O772       Ni773   1.935       .  S
Ni773       O777   1.936       .  S
Ni773       O775   1.931       .  S
O774       Ni779   1.950       .  S
C776        O777   1.269       .  A
C776        C920   1.473       .  S
C781        C782   1.537       .  S
C781        C787   1.528       .  S
C781        C785   1.531       .  S
C781        C850   1.535       .  S
C782        H789   1.083       .  S
C782        C783   1.371       .  D
C783        C784   1.553       .  S
C783        C909   1.486       .  S
C784        C788   1.564       .  S
C784        C786   1.551       .  S
C784        H790   1.107       .  S
C785        H791   1.087       .  S
C785        C786   1.365       .  D
C786        C864   1.503       .  S
C787        H792   1.086       .  S
C787        C788   1.364       .  D
C788        C797   1.512   1_554  S
C793        C794   1.404       .  A
C793        C798   1.409       .  A
C793        H800   1.084       .  S
C794        C795   1.404       .  A
C795        C796   1.411       .  A
C795        N802   1.438       .  S
C796        C797   1.418       .  A
C796        H801   1.082       .  S
C797        C798   1.411       .  A
C798        N799   1.429       .  S
N799        H803   1.045       .  S
N799        H804   1.046       .  S
N802        H805   1.046       .  S
N802        H806   1.046       .  S
C807        C808   1.419       .  A
C807        C812   1.425       .  A
C807        H814   1.078       .  S
C808        C809   1.427       .  A
C809        C810   1.388       .  A
C809        N816   1.437       .  S
C810        C811   1.407       .  A
C810        H815   1.083       .  S
C811        C812   1.415       .  A
C812        N813   1.437       .  S
N813        H817   1.045       .  S
N813        H818   1.045       .  S
N816        H819   1.041       .  S
N816        H820   1.042       .  S
C821        C822   1.403       .  A
C821        C826   1.408       .  A
C822        C823   1.412       .  A
C823        C824   1.409       .  A
C823        N830   1.437       .  S
C824        C825   1.403       .  A
C824        H829   1.083       .  S
C825        C826   1.413       .  A
C826        N827   1.438       .  S
N827        H831   1.045       .  S
N827        H832   1.046       .  S
N830        H834   1.046       .  S
C835        C836   1.403       .  A
C835        C840   1.407       .  A
C835        H842   1.084       .  S
C836        C837   1.404       .  A
C837        C838   1.409       .  A
C837        N844   1.437       .  S
C838        C839   1.418       .  A
C838        H843   1.079       .  S
C839        C840   1.416       .  A
C840        N841   1.430       .  S
N841        H845   1.046       .  S
N841        H846   1.046       .  S
N844        H847   1.045       .  S
N844        H848   1.046       .  S
C849        C850   1.413       .  A
C849        C854   1.414       .  A
C849        H856   1.079       .  S
C850        C851   1.416       .  A
C851        C852   1.393       .  A
C851        N858   1.435       .  S
C852        C853   1.405       .  A
C852        H857   1.083       .  S
C853        C854   1.412       .  A
C854        N855   1.431       .  S
N855        H859   1.045       .  S
N855        H860   1.045       .  S
N858        H861   1.046       .  S
N858        H862   1.046       .  S
C863        C864   1.407       .  A
C863        C868   1.401       .  A
C863        H870   1.084       .  S
C864        C865   1.416       .  A
C865        N872   1.431       .  S
C866        C867   1.406       .  A
C866        H871   1.083       .  S
C868        N869   1.434   1_565  S
N869        H873   1.045       .  S
N872        H875   1.045       .  S
C877        C878   1.403       .  A
C877        C882   1.404       .  A
C877        H884   1.080       .  S
C878        C879   1.414       .  A
C879        C880   1.405       .  A
C879        N886   1.432       .  S
C880        C881   1.404       .  A
C880        H885   1.083       .  S
C881        C882   1.414       .  A
C882        N883   1.433       .  S
N883        H887   1.044       .  S
N883        H888   1.045       .  S
N886        H889   1.046       .  S
N886        H890   1.044       .  S
C891        C892   1.398       .  A
C891        C896   1.396       .  A
C891        H898   1.079       .  S
C892        C893   1.419       .  A
C893        C894   1.407       .  A
C893        N900   1.436       .  S
C894        C895   1.399       .  A
C894        H899   1.084   1_556  S
C895        C896   1.407       .  A
C896        N897   1.433       .  S
N897        H901   1.046       .  S
N897        H902   1.046       .  S
N900        H903   1.046   1_455  S
N900        H904   1.046   1_455  S
C905        C906   1.402       .  A
C905        C910   1.402       .  A
C905        H912   1.082       .  S
C906        C907   1.414       .  A
C907        C908   1.409       .  A
C907        N914   1.438       .  S
C908        C909   1.401       .  A
C908        H913   1.081       .  S
C909        C910   1.416       .  A
C910        N911   1.434       .  S
N911        H915   1.044       .  S
N911        H916   1.043       .  S
N914        H917   1.046       .  S
N914        H918   1.046       .  S
C919        C920   1.404       .  A
C919        C924   1.402       .  A
C919        H926   1.085       .  S
C920        C921   1.406       .  A
C921        C922   1.410       .  A
C921        N928   1.437       .  S
C922        C923   1.406       .  A
C922        H927   1.083       .  S
C923        C924   1.414       .  A
C924        N925   1.439       .  S
N925        H929   1.046       .  S
N925        H930   1.043       .  S
N928        H931   1.045       .  S
N928        H932   1.046       .  S
C933        C934   1.394       .  A
C933        C938   1.394       .  A
C933        H940   1.083       .  S
C935        N942   1.438       .  S
C936        C937   1.418       .  A
C936        H941   1.076   1_655  S
C937        C938   1.432       .  A
C938        N939   1.434       .  S
N939        H943   1.041       .  S
N939        H944   1.039       .  S
N942        H945   1.043       .  S
N942        H946   1.046   1_655  S
C947        C948   1.410       .  A
C947        C952   1.406       .  A
C947        H954   1.084       .  S
C948        C949   1.422       .  A
C949        C950   1.405       .  A
C949        N956   1.432       .  S
C950        C951   1.406       .  A
C950        H955   1.083       .  S
C951        C952   1.412       .  A
C952        N953   1.432   1_655  S
N953        H957   1.046       .  S
N953        H958   1.046       .  S
N956        H959   1.045       .  S
N956        H960   1.045       .  S
C961        C962   1.398       .  A
C961        C966   1.403       .  A
C961        H968   1.084       .  S
C962        C963   1.406       .  A
C963        C964   1.404       .  A
C963        N970   1.438       .  S
C964        C965   1.410       .  A
C964        H969   1.080       .  S
C965        C966   1.420       .  A
C966        N967   1.439       .  S
N967        H971   1.046       .  S
N967        H972   1.045       .  S
N970        H973   1.046       .  S
N970        H974   1.046       .  S
C975        C976   1.409       .  A
C975        C980   1.406       .  A
C975        H982   1.082       .  S
C976        C977   1.414       .  A
C977        C978   1.415       .  A
C977        N984   1.436       .  S
C978        H983   1.083       .  S
N981        H985   1.046       .  S
N981        H986   1.044       .  S
N984        H987   1.045       .  S
N984        H988   1.046       .  S
C989        C990   1.406       .  A
C989        C994   1.411       .  A
C989        H996   1.084       .  S
C990        C991   1.407       .  A
C991        C992   1.407       .  A
C991        N998   1.438       .  S
C992        C993   1.407       .  A
C992        H997   1.084       .  S
C993        C994   1.411       .  A
C994        N995   1.437       .  S
N995        H999   1.046       .  S
N995       H1000   1.045       .  S
N998       H1001   1.046       .  S
N998       H1002   1.046       .  S
C1003      C1004   1.404       .  A
C1003      H1010   1.084       .  S
C1005      C1006   1.407   1_545  A
C1005      N1012   1.435       .  S
C1006      C1007   1.408       .  A
C1006      H1011   1.083       .  S
C1007      C1008   1.416   1_565  A
N1009      H1013   1.046       .  S
N1012      H1016   1.046   1_545  S
C1017      C1018   1.407       .  A
C1017      C1022   1.407       .  A
C1017      H1024   1.083       .  S
C1018      C1019   1.416       .  A
C1019      C1020   1.412       .  A
C1019      N1026   1.438       .  S
C1020      C1021   1.413       .  A
C1020      H1025   1.078       .  S
C1021      C1022   1.416       .  A
C1022      N1023   1.433       .  S
N1023      H1027   1.046       .  S
N1023      H1028   1.045       .  S
N1026      H1029   1.046       .  S
N1026      H1030   1.046       .  S
C1031      C1032   1.401       .  A
C1031      C1036   1.409       .  A
C1031      H1038   1.084       .  S
C1032      C1033   1.409       .  A
C1033      C1034   1.396       .  A
C1033      N1040   1.431       .  S
C1034      C1035   1.409   1_554  A
C1034      H1039   1.081   1_554  S
C1035      C1036   1.421   1_556  A
C1036      N1037   1.438       .  S
N1037      H1041   1.045   1_554  S
N1037      H1042   1.046       .  S
N1040      H1043   1.045       .  S
N1040      H1044   1.044       .  S
C1045      C1046   1.401       .  A
C1045      H1052   1.084       .  S
C1047      C1048   1.408       .  A
C1047      N1054   1.437       .  S
C1048      C1049   1.401       .  A
C1048      H1053   1.084       .  S
C1049      C1050   1.415       .  A
C1050      N1051   1.438       .  S
N1051      H1055   1.046       .  S
N1051      H1056   1.044       .  S
N1054      H1057   1.045       .  S
N1054      H1058   1.046       .  S
C1059      C1060   1.404       .  A
C1059      C1064   1.405       .  A
C1059      H1066   1.084       .  S
C1060      C1061   1.419       .  A
C1061      C1062   1.415       .  A
C1061      N1068   1.437       .  S
C1062      C1063   1.403       .  A
C1062      H1067   1.084       .  S
C1063      C1064   1.413       .  A
C1064      N1065   1.438       .  S
N1065      H1069   1.046       .  S
N1065      H1070   1.046       .  S
N1068      H1071   1.045       .  S
N1068      H1072   1.046       .  S
C1073      C1074   1.403       .  A
C1073      C1078   1.401       .  A
C1073      H1080   1.084       .  S
C1074      C1075   1.418       .  A
C1075      C1076   1.406       .  A
C1075      N1082   1.439       .  S
C1076      C1077   1.403       .  A
C1076      H1081   1.082       .  S
C1077      C1078   1.415       .  A
C1078      N1079   1.434       .  S
N1079      H1083   1.043       .  S
N1079      H1084   1.045       .  S
N1082      H1085   1.043       .  S
N1082      H1086   1.046       .  S
C1087      C1088   1.399       .  A
C1087      C1092   1.399       .  A
C1087      H1094   1.084       .  S
C1088      C1089   1.406       .  A
C1089      C1090   1.407       .  A
C1089      N1096   1.432       .  S
C1090      C1091   1.410       .  A
C1090      H1095   1.084       .  S
C1091      C1092   1.417       .  A
N1093      H1097   1.046       .  S
N1093      H1098   1.046       .  S
N1096      H1099   1.045       .  S
N1096      H1100   1.046       .  S
C1101      C1102   1.404       .  A
C1101      C1106   1.408       .  A
C1101      H1108   1.084       .  S
C1102      C1103   1.404       .  A
C1103      C1104   1.409       .  A
C1103      N1110   1.438       .  S
C1104      C1105   1.416       .  A
C1104      H1109   1.077       .  S
C1105      C1106   1.416       .  A
C1106      N1107   1.433       .  S
N1107      H1111   1.045       .  S
N1107      H1112   1.046       .  S
N1110      H1113   1.045       .  S
N1110      H1114   1.045       .  S
C1115      C1116   1.400       .  A
C1115      C1120   1.400       .  A
C1115      H1122   1.084       .  S
C1116      C1117   1.411       .  A
C1117      C1118   1.406       .  A
C1117      N1124   1.439       .  S
C1118      C1119   1.405       .  A
C1118      H1123   1.084       .  S
C1119      C1120   1.418       .  A
C1120      N1121   1.432       .  S
N1121      H1125   1.042       .  S
N1121      H1126   1.046       .  S
N1124      H1127   1.045       .  S
N1124      H1128   1.046       .  S
C1129      C1130   1.403       .  A
C1129      C1134   1.405       .  A
C1129      H1136   1.082       .  S
C1130      C1131   1.408       .  A
C1131      C1132   1.402       .  A
C1131      N1138   1.437       .  S
C1132      C1133   1.402       .  A
C1132      H1137   1.084       .  S
C1133      C1134   1.419       .  A
C1134      N1135   1.439       .  S
N1135      H1139   1.046       .  S
N1135      H1140   1.042       .  S
N1138      H1141   1.046       .  S
N1138      H1142   1.046       .  S
C1143      C1144   1.407       .  A
C1143      C1148   1.410       .  A
C1143      H1150   1.084       .  S
C1144      C1145   1.408       .  A
C1145      C1146   1.404       .  A
C1145      N1152   1.432   1_455  S
C1146      C1147   1.411       .  A
C1146      H1151   1.083       .  S
C1147      C1148   1.415       .  A
C1148      N1149   1.432       .  S
N1149      H1153   1.046       .  S
N1149      H1154   1.046       .  S
N1152      H1155   1.045       .  S
N1152      H1156   1.046   1_655  S
C1157      C1158   1.409       .  A
C1157      C1162   1.399       .  A
C1157      H1164   1.076       .  S
C1158      C1159   1.419       .  A
C1159      N1166   1.433   1_455  S
C1160      C1161   1.402       .  A
C1160      H1165   1.084       .  S
C1162      N1163   1.434       .  S
N1163      H1167   1.046       .  S
N1163      H1168   1.045       .  S
N1166      H1169   1.046   1_565  S
C1171      C1172   1.405       .  A
C1171      C1176   1.398   1_554  A
C1171      H1178   1.083       .  S
C1172      C1173   1.410       .  A
C1173      C1174   1.399       .  A
C1173      N1180   1.432       .  S
C1174      C1175   1.400   1_554  A
C1174      H1179   1.084       .  S
C1175      C1176   1.411       .  A
C1176      N1177   1.433       .  S
N1177      H1181   1.045       .  S
N1177      H1182   1.046       .  S
N1180      H1183   1.045       .  S
N1180      H1184   1.046       .  S
