geometry optimzed in LAMMPS
_audit_creation_date              2020-11-30 
_audit_creation_method            'lammps2cif' 
_symmetry_space_group_name_H-M    'P1' 
_symmetry_Int_Tables_number       1 
_symmetry_cell_setting            triclinic 
loop_ 
_symmetry_equiv_pos_as_xyz 
  x,y,z 
_cell_length_a                    90.41667197 
_cell_length_b                    44.62974706002502 
_cell_length_c                    44.80656643781346 
_cell_angle_alpha                 90.4077811433701 
_cell_angle_beta                  89.87845958577944 
_cell_angle_gamma                 89.4289478380139 
loop_ 
_atom_site_label 
_atom_site_type_symbol 
_atom_site_fract_x 
_atom_site_fract_y 
_atom_site_fract_z 
_atom_site_charge 
C1          C  0.26835379  0.42134889  0.64349128     0.85700
C2          C  0.26431261  0.44318055  0.66909071    -0.54500
C3          C  0.27602008  0.45419068  0.68408700     0.08700
C4          C  0.29099918  0.44240182  0.67277172     0.19600
C5          C  0.27961601  0.43856591  0.62387455    -0.55200
C6          C  0.29136483  0.45013696  0.63927061     0.08800
C7          C  0.27772088  0.39709562  0.66010916    -0.54800
C8          C  0.28961891  0.40807211  0.67552752     0.09300
H9          H  0.25302473  0.44877863  0.67559478     0.13900
H10         H  0.30044914  0.45177332  0.68510604    -0.00400
H11         H  0.27776972  0.44329904  0.60044667     0.14200
H12         H  0.27451382  0.37410346  0.66258106     0.13900
C13         C  0.27176116  0.56505085  0.82429579     0.85700
C14         C  0.26852084  0.54149129  0.80004656    -0.54500
C15         C  0.28051844  0.52648516  0.78951079     0.08700
C16         C  0.29494412  0.53462251  0.80558522     0.19600
C17         C  0.27919692  0.54567280  0.84872812    -0.55200
C18         C  0.29139155  0.52978620  0.83925494     0.08800
C19         C  0.28427753  0.58459566  0.81155737    -0.54800
C20         C  0.29639578  0.56897943  0.80091401     0.09300
H21         H  0.25756226  0.53676727  0.79150015     0.13900
H22         H  0.30452263  0.52121868  0.79720425    -0.00400
H23         H  0.27457824  0.54283831  0.87087020     0.14200
H24         H  0.28327473  0.60872959  0.81099310     0.13900
In25       In  0.18600180  0.59704627  0.88954003     1.36900
C26         C  0.15807513  0.57748301  0.88793788     0.76800
O27         O  0.19059989  0.54858071  0.89698782    -0.61600
O28         O  0.19332428  0.57969609  0.93330768    -0.52500
C29         C  0.21279323  0.59965565  0.86456368     0.69500
O30         O  0.20180120  0.58805492  0.85123099    -0.47400
C31         C  0.17738659  0.65391986  0.89226930     0.74200
O32         O  0.16623291  0.57793828  0.86469999    -0.59200
O33         O  0.18306065  0.64044018  0.91433566    -0.49300
O34         O  0.16450411  0.58738532  0.91087488    -0.55700
C35         C  0.19371349  0.55270097  0.92417974     0.84400
O36         O  0.20948647  0.61146266  0.88935829    -0.57600
O37         O  0.17711789  0.63857610  0.86837319    -0.60900
In38       In  0.18393771  0.56466389  0.06774195     1.36900
C39         C  0.15672104  0.54582121  0.07894741     0.76800
O40         O  0.17851601  0.60466094  0.09518191    -0.61600
O41         O  0.17703304  0.60819748  0.04779092    -0.52500
C42         C  0.21110245  0.57542075  0.08621717     0.69500
O43         O  0.20206462  0.56011089  0.10157114    -0.47400
C44         C  0.19100609  0.52530984  0.02619430     0.74200
O45         O  0.16716556  0.54103941  0.09740218    -0.59200
O46         O  0.18753519  0.55229323  0.02075052    -0.49300
O47         O  0.16066039  0.55934388  0.05570516    -0.55700
C48         C  0.17508212  0.62068305  0.07302896     0.84400
O49         O  0.20611523  0.58452646  0.06157619    -0.57600
O50         O  0.19075480  0.51797579  0.05339413    -0.60900
C51         C  0.26907917  0.56825739  0.13337389     0.85700
C52         C  0.28018072  0.59050309  0.14692422    -0.54500
C53         C  0.29141966  0.57726057  0.16247679     0.08700
C54         C  0.29061044  0.54247293  0.16258204     0.19600
C55         C  0.27846892  0.54559380  0.11439971    -0.55200
C56         C  0.28987628  0.53245852  0.12971598     0.08800
C57         C  0.26415825  0.54891442  0.15975198    -0.54800
C58         C  0.27510356  0.53504080  0.17516819     0.09300
H59         H  0.27876491  0.61465169  0.14579128     0.13900
H60         H  0.29997507  0.53139898  0.17394656    -0.00400
H61         H  0.27576938  0.53850238  0.09192723     0.14200
H62         H  0.25268780  0.54709661  0.16643730     0.13900
C63         C  0.26391863  0.43277722  0.32009881     0.85700
C64         C  0.27106767  0.40883005  0.29877795    -0.54500
C65         C  0.28112016  0.42038216  0.27921616     0.08700
C66         C  0.28268555  0.45458595  0.28209551     0.19600
C67         C  0.27723054  0.44908604  0.33478039    -0.55200
C68         C  0.28705263  0.46069908  0.31469962     0.08800
C69         C  0.25717366  0.45549157  0.29794827    -0.54800
C70         C  0.26693157  0.46730701  0.27871634     0.09300
H71         H  0.26775623  0.38568415  0.29706495     0.13900
H72         H  0.29053513  0.46410463  0.26566524    -0.00400
H73         H  0.27863299  0.45120375  0.35874174     0.14200
H74         H  0.24560962  0.46227465  0.29792614     0.13900
In75       In  0.18080001  0.38966786  0.59019521     1.36900
C76         C  0.15217334  0.40503101  0.59078240     0.76800
O77         O  0.18430775  0.43574235  0.57206304    -0.61600
O78         O  0.18833895  0.39720074  0.54439938    -0.52500
C79         C  0.20742871  0.39241838  0.61426533     0.69500
O80         O  0.19645049  0.40622529  0.62597119    -0.47400
C81         C  0.17294708  0.33350835  0.59094139     0.74200
O82         O  0.16050207  0.41026539  0.61311730    -0.59200
O83         O  0.17956136  0.34509340  0.56906247    -0.49300
O84         O  0.15892954  0.39321347  0.56900677    -0.55700
C85         C  0.18841902  0.42541277  0.54704441     0.84400
O86         O  0.20417058  0.37468304  0.59338971    -0.57600
O87         O  0.17208269  0.34990551  0.61411897    -0.60900
In88       In  0.17974658  0.39664432  0.38728443     1.36900
C89         C  0.15106284  0.41158127  0.37998157     0.76800
O90         O  0.17350842  0.35540437  0.36228756    -0.61600
O91         O  0.17783678  0.35276694  0.40908176    -0.52500
C92         C  0.20677090  0.40130819  0.36496661     0.69500
O93         O  0.19590567  0.41603234  0.35438116    -0.47400
C94         C  0.18699572  0.42936785  0.43334996     0.74200
O95         O  0.16043410  0.41378288  0.35892670    -0.59200
O96         O  0.18584777  0.40122881  0.43425540    -0.49300
O97         O  0.15686955  0.40366882  0.40422926    -0.55700
C98         C  0.17318964  0.33987900  0.38581143     0.84400
O99         O  0.20329446  0.38195552  0.38391760    -0.57600
O100        O  0.18373005  0.44144621  0.40878245    -0.60900
C101        C  0.36424942  0.28740090  0.87798075     0.85700
C102        C  0.37848163  0.26734842  0.87657551    -0.54500
C103        C  0.37706974  0.23913078  0.88889620     0.08700
C104        C  0.36150373  0.23478727  0.90234878     0.19600
C105        C  0.35185297  0.26811994  0.86459016    -0.55200
C106        C  0.35062006  0.24076789  0.87697637     0.08800
C107        C  0.36022724  0.28835642  0.91156961    -0.54800
C108        C  0.35942962  0.26083620  0.92462991     0.09300
H109        H  0.38868819  0.27590030  0.86763759     0.13900
H110        H  0.35939496  0.21254798  0.91204832    -0.00400
H111        H  0.34461353  0.27541471  0.84667953     0.14200
H112        H  0.35850629  0.30850286  0.92465110     0.13900
C113        C  0.36724156  0.27954297  0.09965735     0.85700
C114        C  0.35670446  0.25736225  0.11431901    -0.54500
C115        C  0.35659240  0.22990514  0.10191743     0.08700
C116        C  0.36703433  0.22619082  0.07518353     0.19600
C117        C  0.38263787  0.26253329  0.10026396    -0.55200
C118        C  0.38262036  0.23390280  0.08727291     0.08800
C119        C  0.36424734  0.27912031  0.06608996    -0.54800
C120        C  0.36366896  0.25162722  0.05317139     0.09300
H121        H  0.35017639  0.26277044  0.13408477     0.13900
H122        H  0.36544293  0.20379638  0.06539157    -0.00400
H123        H  0.39253582  0.27302476  0.10736434     0.14200
H124        H  0.36355643  0.29953736  0.05303087     0.13900
C125        C  0.35497039  0.57028421  0.66574243     0.85700
C126        C  0.34539195  0.58736027  0.68882802    -0.54500
C127        C  0.33545218  0.57032457  0.70354233     0.08700
C128        C  0.33567203  0.53725444  0.69339569     0.19600
C129        C  0.36205410  0.54366236  0.68364144    -0.55200
C130        C  0.35182747  0.52632865  0.69848515     0.08800
C131        C  0.34416462  0.55316245  0.64502858    -0.54800
C132        C  0.33380910  0.53661999  0.65915693     0.09300
H133        H  0.34713391  0.61076245  0.69451319     0.13900
H134        H  0.32713417  0.52401573  0.70508524    -0.00400
H135        H  0.37366846  0.53763217  0.68279289     0.14200
H136        H  0.34489416  0.55358433  0.62084725     0.13900
C137        C  0.34245907  0.39186069  0.81792371     0.85700
C138        C  0.33124347  0.37823922  0.79562042    -0.54500
C139        C  0.32202360  0.39854228  0.78240741     0.08700
C140        C  0.32418711  0.43080093  0.79472446     0.19600
C141        C  0.35000701  0.41717597  0.80000620    -0.55200
C142        C  0.34051603  0.43819589  0.78779006     0.08800
C143        C  0.33237330  0.40825345  0.84091796    -0.54800
C144        C  0.32318197  0.42917309  0.82885673     0.09300
H145        H  0.33117115  0.35476720  0.78920624     0.13900
H146        H  0.31580800  0.44698519  0.78747477    -0.00400
H147        H  0.36178408  0.41665866  0.79552325     0.14200
H148        H  0.33259923  0.40437884  0.86475631     0.13900
C149        C  0.35230432  0.58230191  0.28940008     0.85700
C150        C  0.34049091  0.56262113  0.30523913    -0.54500
C151        C  0.33187008  0.54523251  0.28684987     0.08700
C152        C  0.33662977  0.54887729  0.25360119     0.19600
C153        C  0.36142288  0.55824253  0.27232222    -0.55200
C154        C  0.35340301  0.54114491  0.25310114     0.08800
C155        C  0.34368308  0.59997704  0.26554671    -0.54800
C156        C  0.33539156  0.58274423  0.24697454     0.09300
H157        H  0.33975574  0.56123977  0.32934925     0.13900
H158        H  0.33026045  0.53595566  0.23719042    -0.00400
H159        H  0.37283702  0.55265028  0.27730271     0.14200
H160        H  0.34366287  0.62426980  0.26433713     0.13900
C161        C  0.34489887  0.39372724  0.15624804     0.85700
C162        C  0.33676359  0.41442659  0.13369520    -0.54500
C163        C  0.32980521  0.43872616  0.14629472     0.08700
C164        C  0.33234100  0.44094823  0.18052864     0.19600
C165        C  0.35585137  0.41547812  0.17125815    -0.55200
C166        C  0.34934474  0.43948334  0.18495414     0.08800
C167        C  0.33316484  0.38680981  0.18027538    -0.54800
C168        C  0.32636522  0.41113421  0.19326602     0.09300
H169        H  0.33629818  0.40992753  0.10987635     0.13900
H170        H  0.32751906  0.46145172  0.19046701    -0.00400
H171        H  0.36776761  0.41314114  0.17041402     0.14200
H172        H  0.32989449  0.36401801  0.18501745     0.13900
C173        C  0.38466626  0.66927675  0.60032902     0.85700
C174        C  0.39804406  0.68900441  0.61016561    -0.54500
C175        C  0.39919767  0.71543154  0.59450518     0.08700
C176        C  0.38681695  0.72001954  0.57137888     0.19600
C177        C  0.37165816  0.69142842  0.60482440    -0.55200
C178        C  0.37239942  0.71786773  0.58992616     0.08800
C179        C  0.38684404  0.66602526  0.56640097    -0.54800
C180        C  0.38736645  0.69216127  0.55098079     0.09300
H181        H  0.40525952  0.68482842  0.62877702     0.13900
H182        H  0.38806858  0.74047892  0.55808255    -0.00400
H183        H  0.36291930  0.68705829  0.62084524     0.14200
H184        H  0.38721236  0.64435604  0.55525643     0.13900
C185        C  0.38038626  0.67048937  0.37020773     0.85700
C186        C  0.36780961  0.69384176  0.36744083    -0.54500
C187        C  0.36927617  0.71939049  0.38389878     0.08700
C188        C  0.38389042  0.71947013  0.40182943     0.19600
C189        C  0.39408647  0.68931287  0.36100667    -0.55200
C190        C  0.39596754  0.71488421  0.37790273     0.08800
C191        C  0.38233448  0.66527159  0.40386197    -0.54800
C192        C  0.38395940  0.69069255  0.42051324     0.09300
H193        H  0.35882348  0.69103978  0.35163299     0.13900
H194        H  0.38562767  0.73917878  0.41629009    -0.00400
H195        H  0.40070708  0.68545979  0.34126222     0.14200
H196        H  0.38198978  0.64317565  0.41380018     0.13900
C197        C  0.23283486  0.91438121  0.66868445     0.85700
C198        C  0.21980915  0.89335664  0.67756350    -0.54500
C199        C  0.20920423  0.90681652  0.69533836     0.08700
C200        C  0.21239727  0.94018366  0.70166519     0.19600
C201        C  0.22494453  0.94197134  0.65382693    -0.55200
C202        C  0.21398106  0.95507626  0.67083695     0.08800
C203        C  0.23841210  0.92758458  0.69817889    -0.54800
C204        C  0.22797119  0.94043248  0.71539589     0.09300
H205        H  0.21914602  0.87009904  0.67052849     0.13900
H206        H  0.20394029  0.95114747  0.71605723    -0.00400
H207        H  0.22783165  0.95182042  0.63281243     0.14200
H208        H  0.24988017  0.92640374  0.70537087     0.13900
C209        C  0.22175790  0.04762845  0.85450934     0.85700
C210        C  0.21387249  0.06538816  0.82875003    -0.54500
C211        C  0.20417401  0.04865974  0.81172674     0.08700
C212        C  0.20421407  0.01541627  0.82159564     0.19600
C213        C  0.20882087  0.03283555  0.87199337    -0.55200
C214        C  0.19982147  0.01556134  0.85442674     0.08800
C215        C  0.22935441  0.02197678  0.83732497    -0.54800
C216        C  0.22044141  0.00556789  0.82007093     0.09300
H217        H  0.21674822  0.08776253  0.82271310     0.13900
H218        H  0.19688185  0.00010037  0.80927145    -0.00400
H219        H  0.20702994  0.03573831  0.89579295     0.14200
H220        H  0.24127732  0.01842938  0.83684536     0.13900
In221      In  0.30945312  0.08415130  0.89514898     1.36900
C222        C  0.33767315  0.06572008  0.89235246     0.76800
O223        O  0.31442654  0.11573848  0.85837081    -0.61600
O224        O  0.31320641  0.13237879  0.90337060    -0.52500
C225        C  0.28091577  0.08038274  0.88208474     0.69500
O226        O  0.29063513  0.06436945  0.86861033    -0.47400
C227        C  0.30466466  0.05491368  0.94377819     0.74200
O228        O  0.32815802  0.05753008  0.87301953    -0.59200
O229        O  0.30607921  0.08317748  0.94329339    -0.49300
O230        O  0.33245029  0.08260247  0.91260421    -0.55700
C231        C  0.31614552  0.13758125  0.87624694     0.84400
O232        O  0.28602664  0.09968926  0.89991365    -0.57600
O233        O  0.30597413  0.04141612  0.91898206    -0.60900
In234      In  0.32451224  0.06439803  0.10936122     1.36900
C235        C  0.35273724  0.04748171  0.10676157     0.76800
O236        O  0.31852545  0.02524824  0.08052247    -0.61600
O237        O  0.31801262  0.06995127  0.06313073    -0.52500
C238        C  0.29697275  0.05714675  0.12739566     0.69500
O239        O  0.30728328  0.03970721  0.13631892    -0.47400
C240        C  0.33056717  0.11939322  0.12451590     0.74200
O241        O  0.34456813  0.04005361  0.12866803    -0.59200
O242        O  0.32665766  0.11167729  0.09858780    -0.49300
O243        O  0.34604951  0.06168231  0.08660732    -0.55700
C244        C  0.31511488  0.04254546  0.05932945     0.84400
O245        O  0.30140358  0.08009134  0.11406216    -0.57600
O246        O  0.33072722  0.09877700  0.14387398    -0.60900
C247        C  0.23690190  0.02456683  0.14464934     0.85700
C248        C  0.24352973  0.00401439  0.16844861    -0.54500
C249        C  0.23372040  0.99028078  0.18586220     0.08700
C250        C  0.21745836  0.99853275  0.17889676     0.19600
C251        C  0.22556004  0.00493235  0.12746503    -0.55200
C252        C  0.21546974  0.99094988  0.14543301     0.08800
C253        C  0.22708438  0.04675054  0.16343139    -0.54800
C254        C  0.21668298  0.03317241  0.18096585     0.09300
H255        H  0.25533688  0.00028269  0.17137147     0.13900
H256        H  0.20943569  0.98711008  0.19357452    -0.00400
H257        H  0.22587946  0.00145216  0.10348207     0.14200
H258        H  0.22837994  0.07070953  0.16447950     0.13900
C259        C  0.23344070  0.90664263  0.33965650     0.85700
C260        C  0.24084514  0.91355451  0.30965759    -0.54500
C261        C  0.23147420  0.92085467  0.28764289     0.08700
C262        C  0.21527450  0.91962325  0.29661206     0.19600
C263        C  0.22288357  0.93370310  0.34623360    -0.55200
C264        C  0.21360096  0.94180176  0.32321130     0.08800
C265        C  0.22242469  0.88102282  0.33182537    -0.54800
C266        C  0.21284133  0.88846860  0.30936239     0.09300
H267        H  0.25275513  0.91460123  0.30644431     0.13900
H268        H  0.20784333  0.92277750  0.27743939    -0.00400
H269        H  0.22226081  0.94304835  0.36827303     0.14200
H270        H  0.22165777  0.85963517  0.34261931     0.13900
In271      In  0.31826608  0.86238025  0.60743981     1.36900
C272        C  0.34538858  0.88676643  0.60187771     0.76800
O273        O  0.33176389  0.83339583  0.63839160    -0.61600
O274        O  0.32135289  0.81359088  0.60069901    -0.52500
C275        C  0.29302256  0.88152460  0.63344443     0.69500
O276        O  0.30228712  0.89943757  0.62268794    -0.47400
C277        C  0.30977066  0.85657270  0.55216513     0.74200
O278        O  0.33902860  0.88351849  0.62685260    -0.59200
O279        O  0.31007328  0.83470135  0.56977138    -0.49300
O280        O  0.33695569  0.88109317  0.58037724    -0.55700
C281        C  0.33061719  0.81073515  0.62145194     0.84400
O282        O  0.29768709  0.85491949  0.63432964    -0.57600
O283        O  0.31265941  0.88181480  0.56353110    -0.60900
In284      In  0.32066131  0.87057848  0.37135922     1.36900
C285        C  0.34762447  0.89561206  0.36965474     0.76800
O286        O  0.31793964  0.88891296  0.41729526    -0.61600
O287        O  0.31284637  0.84290919  0.40842414    -0.52500
C288        C  0.29384732  0.88902721  0.35616502     0.69500
O289        O  0.29992533  0.86662148  0.34379020    -0.47400
C290        C  0.33040667  0.81706470  0.35634584     0.74200
O291        O  0.33882242  0.89712776  0.34770444    -0.59200
O292        O  0.32267990  0.82219463  0.37917104    -0.49300
O293        O  0.34189246  0.88398401  0.39229316    -0.55700
C294        C  0.31377485  0.86391464  0.42719599     0.84400
O295        O  0.30263672  0.90523536  0.37065718    -0.57600
O296        O  0.33129936  0.83863750  0.33823022    -0.60900
C297        C  0.15454090  0.86877646  0.18032644     0.85700
C298        C  0.16329133  0.85621578  0.20687448    -0.54500
C299        C  0.17202239  0.87630352  0.22104906     0.08700
C300        C  0.17122325  0.90813842  0.20728788     0.19600
C301        C  0.14589028  0.89639767  0.19306194    -0.55200
C302        C  0.15455522  0.91735452  0.20748481     0.08800
C303        C  0.16592691  0.88434820  0.15988655    -0.54800
C304        C  0.17490977  0.90425022  0.17356077     0.09300
H305        H  0.16246771  0.83310555  0.21409392     0.13900
H306        H  0.17859110  0.92361879  0.21937196    -0.00400
H307        H  0.13437957  0.90096602  0.18816271     0.14200
H308        H  0.16635444  0.88094007  0.13585500     0.13900
C309        C  0.14931430  0.07243553  0.29600516     0.85700
C310        C  0.16094385  0.08372356  0.27302305    -0.54500
C311        C  0.16896132  0.06171641  0.25916218     0.08700
C312        C  0.16404030  0.03030271  0.26781432     0.19600
C313        C  0.13949300  0.05170722  0.27602375    -0.55200
C314        C  0.14724410  0.02911507  0.26181266     0.08800
C315        C  0.15775480  0.04994111  0.31650665    -0.54800
C316        C  0.16586869  0.02822263  0.30200670     0.09300
H317        H  0.16311360  0.10727050  0.26920112     0.13900
H318        H  0.17044905  0.01332319  0.25511371    -0.00400
H319        H  0.12796706  0.05526816  0.27099238     0.14200
H320        H  0.15699066  0.05153777  0.34053876     0.13900
C321        C  0.11913556  0.79067737  0.87105511     0.85700
C322        C  0.13514246  0.77817357  0.87302709    -0.54500
C323        C  0.13698733  0.75332671  0.89037689     0.08700
C324        C  0.12237184  0.74425783  0.90583703     0.19600
C325        C  0.10938022  0.76368122  0.86249465    -0.55200
C326        C  0.11113947  0.73930061  0.88053652     0.08800
C327        C  0.11528838  0.79694642  0.90398403    -0.54800
C328        C  0.11703473  0.77294173  0.92228740     0.09300
H329        H  0.14428964  0.78931634  0.86231804     0.13900
H330        H  0.12344165  0.72438989  0.92044269    -0.00400
H331        H  0.10180740  0.76380153  0.84373789     0.14200
H332        H  0.11292642  0.81883223  0.91327407     0.13900
C333        C  0.12953562  0.77290193  0.10216422     0.85700
C334        C  0.11705516  0.74916587  0.10779357    -0.54500
C335        C  0.11551640  0.72779093  0.08493110     0.08700
C336        C  0.12666719  0.73329060  0.05953514     0.19600
C337        C  0.14287543  0.75185113  0.09757454    -0.55200
C338        C  0.14173971  0.73155956  0.07544580     0.08800
C339        C  0.12566463  0.78619981  0.07178088    -0.54800
C340        C  0.12414476  0.76578581  0.04952464     0.09300
H341        H  0.11160975  0.74672715  0.12913482     0.13900
H342        H  0.12582359  0.71920937  0.03960289    -0.00400
H343        H  0.15196310  0.75066082  0.11343670     0.14200
H344        H  0.12386913  0.81003935  0.06849565     0.13900
C345        C  0.14032339  0.89367825  0.80888169     0.85700
C346        C  0.14731823  0.91342367  0.83365215    -0.54500
C347        C  0.15533583  0.93708773  0.82340636     0.08700
C348        C  0.15560920  0.93851222  0.78878288     0.19600
C349        C  0.13135757  0.91509522  0.78913032    -0.55200
C350        C  0.13910466  0.93854129  0.77830198     0.08800
C351        C  0.15401314  0.88451394  0.78969149    -0.54800
C352        C  0.16208444  0.90770546  0.77835046     0.09300
H353        H  0.14645775  0.90841383  0.85725758     0.13900
H354        H  0.16210347  0.95772072  0.78148382    -0.00400
H355        H  0.11992337  0.91111628  0.78299037     0.14200
H356        H  0.15700279  0.86145136  0.78510166     0.13900
C357        C  0.14602374  0.07693843  0.67118167     0.85700
C358        C  0.15839841  0.05939429  0.65347421    -0.54500
C359        C  0.16552953  0.03764144  0.66933981     0.08700
C360        C  0.15901917  0.03414796  0.70061954     0.19600
C361        C  0.13554718  0.05139826  0.68065066    -0.55200
C362        C  0.14225444  0.02939304  0.69682809     0.08800
C363        C  0.15361103  0.08730511  0.70068192    -0.54800
C364        C  0.16078909  0.06503753  0.71619233     0.09300
H365        H  0.16163514  0.06452359  0.63076166     0.13900
H366        H  0.16447470  0.01561144  0.71203557    -0.00400
H367        H  0.12401496  0.04979056  0.67466484     0.14200
H368        H  0.15306490  0.11039179  0.70796802     0.13900
C369        C  0.12873523  0.18214983  0.36543768     0.85700
C370        C  0.11584126  0.20146265  0.35200229    -0.54500
C371        C  0.11267630  0.22735320  0.36791110     0.08700
C372        C  0.12280979  0.23178073  0.39500890     0.19600
C373        C  0.14142905  0.20502725  0.36664347    -0.55200
C374        C  0.13867480  0.23106248  0.38189576     0.08800
C375        C  0.12445942  0.17747001  0.39827455    -0.54800
C376        C  0.12159204  0.20314401  0.41422261     0.09300
H377        H  0.11039726  0.19616138  0.33110117     0.13900
H378        H  0.11975108  0.25273159  0.40687693    -0.00400
H379        H  0.15184784  0.20056819  0.35606586     0.14200
H380        H  0.12480265  0.15556536  0.40867586     0.13900
C381        C  0.12463186  0.18013942  0.59592996     0.85700
C382        C  0.13799809  0.20113683  0.59721283    -0.54500
C383        C  0.13680183  0.22724269  0.58222582     0.08700
C384        C  0.12184142  0.23002878  0.56542028     0.19600
C385        C  0.11166257  0.20154322  0.60657102    -0.55200
C386        C  0.11000335  0.22741074  0.59005041     0.08800
C387        C  0.12194534  0.17539731  0.56222674    -0.54800
C388        C  0.12064668  0.20121435  0.54587019     0.09300
H389        H  0.14798349  0.19527363  0.60892542     0.13900
H390        H  0.12058034  0.25113241  0.55271209    -0.00400
H391        H  0.10532711  0.19843906  0.62678830     0.14200
H392        H  0.12185669  0.15330754  0.55192282     0.13900
C393        C  0.55960460  0.09692481  0.60720142     0.85700
C394        C  0.57375481  0.07810350  0.61301964    -0.54500
C395        C  0.58598192  0.08659233  0.59761567     0.08700
C396        C  0.58299298  0.11408709  0.57746265     0.19600
C397        C  0.56477166  0.12916731  0.61485962    -0.55200
C398        C  0.57671381  0.13860362  0.59883310     0.08800
C399        C  0.55770669  0.09659731  0.57280171    -0.54800
C400        C  0.56995158  0.10511591  0.55678724     0.09300
H401        H  0.57394922  0.05927362  0.62810959     0.13900
H402        H  0.59301710  0.12129694  0.56522000    -0.00400
H403        H  0.56014298  0.14288351  0.63265973     0.14200
H404        H  0.54746566  0.08998323  0.56215150     0.13900
C405        C  0.56973061  0.09455454  0.37230520     0.85700
C406        C  0.57533768  0.12621208  0.36600160    -0.54500
C407        C  0.58649544  0.13559537  0.38404107     0.08700
C408        C  0.59102465  0.11203221  0.40785758     0.19600
C409        C  0.58372975  0.07399767  0.37198169    -0.55200
C410        C  0.59510925  0.08310352  0.39003925     0.08800
C411        C  0.56552934  0.09507533  0.40582643    -0.54800
C412        C  0.57650400  0.10414516  0.42482023     0.09300
H413        H  0.57099779  0.13996920  0.34808017     0.13900
H414        H  0.60011804  0.11979624  0.42249116    -0.00400
H415        H  0.58423758  0.05342346  0.35902027     0.14200
H416        H  0.55509055  0.08726355  0.41441029     0.13900
C417        C  0.56486583  0.88903948  0.86531465     0.85700
C418        C  0.57983061  0.90617259  0.86416089    -0.54500
C419        C  0.59115292  0.89441679  0.88094667     0.08700
C420        C  0.58629353  0.86592536  0.89774870     0.19600
C421        C  0.56972096  0.85708650  0.85588333    -0.55200
C422        C  0.58054990  0.84466504  0.87301058     0.08800
C423        C  0.56131523  0.88682524  0.89920951    -0.54800
C424        C  0.57251921  0.87524267  0.91677988     0.09300
H425        H  0.58121244  0.92600393  0.85085731     0.13900
H426        H  0.59547162  0.85585307  0.91074237    -0.00400
H427        H  0.56591773  0.84585872  0.83584845     0.14200
H428        H  0.55081153  0.89436461  0.90847594     0.13900
C429        C  0.56347214  0.87906774  0.10270451     0.85700
C430        C  0.56886397  0.84652868  0.10898100    -0.54500
C431        C  0.58019707  0.83629462  0.09110590     0.08700
C432        C  0.58567157  0.86040311  0.06889503     0.19600
C433        C  0.57797575  0.89696699  0.10603112    -0.55200
C434        C  0.58961930  0.88780013  0.08883493     0.08800
C435        C  0.56026869  0.87957555  0.06867493    -0.54800
C436        C  0.57180944  0.87027133  0.05046835     0.09300
H437        H  0.56499292  0.83319415  0.12743348     0.13900
H438        H  0.59513024  0.85245774  0.05504377    -0.00400
H439        H  0.57899415  0.91577277  0.12110058     0.14200
H440        H  0.54973917  0.88721763  0.05980932     0.13900
C441        C  0.42586359  0.08053223  0.86844575     0.85700
C442        C  0.41145309  0.06280939  0.87029684    -0.54500
C443        C  0.40135202  0.07348564  0.89050942     0.08700
C444        C  0.40714094  0.10070341  0.90878835     0.19600
C445        C  0.42056569  0.11350506  0.86399627    -0.55200
C446        C  0.41058625  0.12457149  0.88469915     0.08800
C447        C  0.43195384  0.08099511  0.90084176    -0.54800
C448        C  0.42222822  0.09111309  0.92227551     0.09300
H449        H  0.40910932  0.04418758  0.85537804     0.13900
H450        H  0.39957658  0.10838163  0.92667719    -0.00400
H451        H  0.42435746  0.12666354  0.84590577     0.14200
H452        H  0.44311940  0.07377958  0.90631707     0.13900
C453        C  0.43962246  0.08740624  0.10507789     0.85700
C454        C  0.43242966  0.11887122  0.11060403    -0.54500
C455        C  0.42036200  0.12579487  0.09300493     0.08700
C456        C  0.41657410  0.09966705  0.07147460     0.19600
C457        C  0.42669657  0.06545545  0.10833999    -0.55200
C458        C  0.41439915  0.07212300  0.09186349     0.08800
C459        C  0.44281570  0.08869771  0.07077199    -0.54800
C460        C  0.43070125  0.09391093  0.05313855     0.09300
H461        H  0.43671061  0.13418785  0.12706841     0.13900
H462        H  0.40723417  0.10413878  0.05629851    -0.00400
H463        H  0.42702425  0.04692629  0.12390678     0.14200
H464        H  0.45374518  0.08813107  0.06095711     0.13900
C465        C  0.52052462  0.94885061  0.77976853    -0.03200
C466        C  0.47378249  0.95019415  0.69096053    -0.03200
C467        C  0.51436916  0.04625205  0.69322318    -0.03200
C468        C  0.47403185  0.02785569  0.78764957    -0.03200
C469        C  0.52507386  0.94057121  0.19703057    -0.03200
C470        C  0.47726139  0.95172510  0.28166355    -0.03200
C471        C  0.52864574  0.02372575  0.29213014    -0.03200
C472        C  0.48466273  0.03609758  0.18974488    -0.03200
C473        C  0.43626374  0.88007901  0.60135163     0.85700
C474        C  0.42069137  0.89419324  0.60457171    -0.54500
C475        C  0.40961291  0.87996933  0.58961317     0.08700
C476        C  0.41539440  0.85269406  0.57123920     0.19600
C477        C  0.43390990  0.84718049  0.61033159    -0.55200
C478        C  0.42340322  0.83251287  0.59448085     0.08800
C479        C  0.43887430  0.87844440  0.56681401    -0.54800
C480        C  0.42776715  0.86500832  0.55007626     0.09300
H481        H  0.41868532  0.91411420  0.61797933     0.13900
H482        H  0.40612158  0.84135692  0.56008005    -0.00400
H483        H  0.43947327  0.83603644  0.62846038     0.14200
H484        H  0.44870235  0.88770439  0.55666113     0.13900
C485        C  0.43757439  0.87559118  0.36280031     0.85700
C486        C  0.43468645  0.84231459  0.35593844    -0.54500
C487        C  0.42310997  0.83023925  0.37116987     0.08700
C488        C  0.41522968  0.85286196  0.39267115     0.19600
C489        C  0.42253656  0.89179404  0.35832354    -0.55200
C490        C  0.41077511  0.88005213  0.37322280     0.08800
C491        C  0.43922483  0.87595895  0.39779892    -0.54800
C492        C  0.42755758  0.86426942  0.41416866     0.09300
H493        H  0.44143496  0.82915208  0.34054233     0.13900
H494        H  0.40532315  0.84374958  0.40354660    -0.00400
H495        H  0.42143917  0.91166469  0.34465235     0.14200
H496        H  0.44859419  0.88501082  0.40924091     0.13900
C497        C  0.76401529  0.06277132  0.64458880     0.85700
C498        C  0.77314369  0.08795104  0.66027564    -0.54500
C499        C  0.78540930  0.07771161  0.67511502     0.08700
C500        C  0.78712168  0.04357126  0.67360665     0.19600
C501        C  0.77519063  0.04482608  0.62502688    -0.55200
C502        C  0.78724746  0.03420019  0.64029726     0.08800
C503        C  0.76052482  0.04182886  0.67078027    -0.54800
C504        C  0.77232707  0.03212642  0.68638021     0.09300
H505        H  0.76923879  0.11074755  0.66349355     0.13900
H506        H  0.79705905  0.03584032  0.68598785    -0.00400
H507        H  0.77329654  0.03979115  0.60162750     0.14200
H508        H  0.74944549  0.03506397  0.67625720     0.13900
C509        C  0.77156836  0.94758906  0.84155561     0.85700
C510        C  0.78167447  0.96571835  0.86294489    -0.54500
C511        C  0.79366389  0.97816670  0.84913991     0.08700
C512        C  0.79467874  0.97071058  0.81579835     0.19600
C513        C  0.76807863  0.96948813  0.81603933    -0.55200
C514        C  0.78007097  0.98243303  0.80272476     0.08800
C515        C  0.78179688  0.92450089  0.82524192    -0.54800
C516        C  0.79383607  0.93642044  0.81137462     0.09300
H517        H  0.77890227  0.97033275  0.88610786     0.13900
H518        H  0.80487489  0.98047442  0.80730359    -0.00400
H519        H  0.75694209  0.97198259  0.80738062     0.14200
H520        H  0.77835590  0.90205141  0.81945449     0.13900
In521      In  0.68482402  0.89369285  0.88633864     1.36900
C522        C  0.65560525  0.90473441  0.88318516     0.76800
O523        O  0.67843504  0.85396819  0.85865595    -0.61600
O524        O  0.68514094  0.84752033  0.90379495    -0.52500
C525        C  0.71172401  0.90412452  0.86491592     0.69500
O526        O  0.70024709  0.91584136  0.85323392    -0.47400
C527        C  0.68993292  0.92761660  0.93299743     0.74200
O528        O  0.66447797  0.91286123  0.86270008    -0.59200
O529        O  0.69097669  0.89935896  0.93346980    -0.49300
O530        O  0.66205796  0.89221026  0.90473822    -0.55700
C531        C  0.67928473  0.83639976  0.88070868     0.84400
O532        O  0.70906186  0.88451330  0.88419957    -0.57600
O533        O  0.68573464  0.93878696  0.90860474    -0.60900
In534      In  0.68117615  0.89761882  0.09201914     1.36900
C535        C  0.65245315  0.91194225  0.09322214     0.76800
O536        O  0.68466379  0.94296278  0.07195259    -0.61600
O537        O  0.68920907  0.90325370  0.04632510    -0.52500
C538        C  0.70733732  0.90297228  0.11741402     0.69500
O539        O  0.69594190  0.91601806  0.12823163    -0.47400
C540        C  0.67357859  0.84128192  0.09262702     0.74200
O541        O  0.66077275  0.91655689  0.11565400    -0.59200
O542        O  0.68009989  0.85308743  0.07078112    -0.49300
O543        O  0.65934915  0.90225632  0.07063352    -0.55700
C544        C  0.68913610  0.93153353  0.04764043     0.84400
O545        O  0.70471448  0.88444455  0.09685530    -0.57600
O546        O  0.67280921  0.85735248  0.11600343    -0.60900
C547        C  0.76683501  0.93751376  0.15142784     0.85700
C548        C  0.76253682  0.95948984  0.17677495    -0.54500
C549        C  0.77398704  0.96990195  0.19304630     0.08700
C550        C  0.78911605  0.95755044  0.18212075     0.19600
C551        C  0.77845072  0.95449957  0.13252611    -0.55200
C552        C  0.79009607  0.96538614  0.14874517     0.08800
C553        C  0.77571101  0.91289998  0.16860294    -0.54800
C554        C  0.78760830  0.92345783  0.18406787     0.09300
H555        H  0.75124312  0.96640722  0.18102778     0.13900
H556        H  0.79865737  0.96580350  0.19531793    -0.00400
H557        H  0.77729979  0.95814038  0.10872417     0.14200
H558        H  0.77177527  0.89044620  0.17248628     0.13900
C559        C  0.77244520  0.07257112  0.33950321     0.85700
C560        C  0.76889364  0.04838271  0.31598262    -0.54500
C561        C  0.78077199  0.03360180  0.30382779     0.08700
C562        C  0.79546659  0.04531642  0.31651191     0.19600
C563        C  0.78196283  0.05465664  0.36230899    -0.55200
C564        C  0.79412001  0.04083278  0.35019498     0.08800
C565        C  0.78315928  0.09361906  0.32290687    -0.54800
C566        C  0.79510653  0.07926001  0.31011121     0.09300
H567        H  0.75777276  0.04489850  0.30799197     0.13900
H568        H  0.80563639  0.03409213  0.30907140    -0.00400
H569        H  0.77841256  0.04962940  0.38481543     0.14200
H570        H  0.78059419  0.11702781  0.31875082     0.13900
In571      In  0.67615261  0.09570658  0.59941948     1.36900
C572        C  0.64825065  0.07854369  0.60405807     0.76800
O573        O  0.67139928  0.13884308  0.62362163    -0.61600
O574        O  0.67348896  0.13922369  0.57653400    -0.52500
C575        C  0.70323238  0.09462345  0.62005296     0.69500
O576        O  0.69247764  0.08531141  0.63577482    -0.47400
C577        C  0.68400244  0.05419322  0.56054699     0.74200
O578        O  0.65733971  0.07450975  0.62533811    -0.59200
O579        O  0.68257479  0.08160563  0.55390875    -0.49300
O580        O  0.65365489  0.09187433  0.58190567    -0.55700
C581        C  0.67112173  0.15435110  0.60005619     0.84400
O582        O  0.69969324  0.10706723  0.59591658    -0.57600
O583        O  0.68068535  0.04750478  0.58704411    -0.60900
In584      In  0.68601468  0.08066480  0.40802590     1.36900
C585        C  0.65784836  0.06491088  0.39991716     0.76800
O586        O  0.69003500  0.03404681  0.42574468    -0.61600
O587        O  0.69102121  0.07182995  0.45522423    -0.52500
C588        C  0.71312699  0.08496083  0.38540144     0.69500
O589        O  0.70327082  0.06895141  0.37304379    -0.47400
C590        C  0.67847562  0.13763901  0.40450994     0.74200
O591        O  0.66775436  0.05867395  0.38052808    -0.59200
O592        O  0.68299404  0.12578136  0.42844415    -0.49300
O593        O  0.66277678  0.07834044  0.42260866    -0.55700
C594        C  0.69197438  0.04371564  0.45199084     0.84400
O595        O  0.70879447  0.09848120  0.40857361    -0.57600
O596        O  0.67862823  0.12038674  0.38194204    -0.60900
C597        C  0.84826638  0.90921702  0.31303347     0.85700
C598        C  0.83635972  0.89921479  0.29061330    -0.54500
C599        C  0.82760559  0.92151423  0.27938399     0.08700
C600        C  0.83137108  0.95267780  0.29280679     0.19600
C601        C  0.85679567  0.93425550  0.29638461    -0.55200
C602        C  0.84796463  0.95668375  0.28487370     0.08800
C603        C  0.83995729  0.92725814  0.33750588    -0.54800
C604        C  0.83083381  0.94923654  0.32759273     0.09300
H605        H  0.83510632  0.87593826  0.28394928     0.13900
H606        H  0.82424310  0.97095422  0.28425079    -0.00400
H607        H  0.86867213  0.93560210  0.29478182     0.14200
H608        H  0.84113119  0.92275035  0.36118756     0.13900
C609        C  0.85176168  0.09379040  0.16967465     0.85700
C610        C  0.84166712  0.10722968  0.19429228    -0.54500
C611        C  0.83356459  0.08708031  0.20973005     0.08700
C612        C  0.83652834  0.05422378  0.19926597     0.19600
C613        C  0.86149809  0.07026380  0.18634788    -0.55200
C614        C  0.85350612  0.04988075  0.20237125     0.08800
C615        C  0.84166128  0.07346780  0.15008104    -0.54800
C616        C  0.83349237  0.05299633  0.16513199     0.09300
H617        H  0.84090803  0.13113225  0.19881606     0.13900
H618        H  0.83015953  0.03746607  0.21182006    -0.00400
H619        H  0.87340982  0.06905238  0.18591582     0.14200
H620        H  0.84137129  0.07474274  0.12589341     0.13900
C621        C  0.87533034  0.20011002  0.85923315     0.85700
C622        C  0.86023430  0.21658019  0.85775418    -0.54500
C623        C  0.85928903  0.24284415  0.87335163     0.08700
C624        C  0.87358400  0.24939878  0.89111884     0.19600
C625        C  0.88708704  0.22381593  0.85118214    -0.55200
C626        C  0.88610320  0.24971076  0.86768660     0.08800
C627        C  0.87733382  0.19548445  0.89309087    -0.54800
C628        C  0.87636361  0.22104947  0.91007736     0.09300
H629        H  0.85091364  0.20716301  0.84596959     0.13900
H630        H  0.87298200  0.27048812  0.90433015    -0.00400
H631        H  0.89522968  0.22063699  0.83358860     0.14200
H632        H  0.87803934  0.17390173  0.90367070     0.13900
C633        C  0.87044966  0.19496828  0.09190661     0.85700
C634        C  0.88165796  0.21953564  0.10230704    -0.54500
C635        C  0.88140412  0.24537337  0.08545789     0.08700
C636        C  0.86963668  0.24433231  0.06034665     0.19600
C637        C  0.85567943  0.21239141  0.09281989    -0.55200
C638        C  0.85498566  0.23773790  0.07671632     0.08800
C639        C  0.87378593  0.19032112  0.05834803    -0.54800
C640        C  0.87319807  0.21583115  0.04141311     0.09300
H641        H  0.88827964  0.21818278  0.12230274     0.13900
H642        H  0.86910507  0.26521370  0.04705405    -0.00400
H643        H  0.84618263  0.20489129  0.10534418     0.14200
H644        H  0.87609203  0.16836155  0.04876339     0.13900
C645        C  0.84616424  0.90295018  0.66683745     0.85700
C646        C  0.83607537  0.92025043  0.64473543    -0.54500
C647        C  0.82763231  0.94241320  0.65724494     0.08700
C648        C  0.83024639  0.94566135  0.69138883     0.19600
C649        C  0.85540956  0.92872426  0.68082408    -0.55200
C650        C  0.84708940  0.95074847  0.69421779     0.08800
C651        C  0.83596084  0.89247343  0.69233790    -0.54800
C652        C  0.82752901  0.91432075  0.70541900     0.09300
H653        H  0.83615772  0.91613007  0.62081236     0.13900
H654        H  0.82365613  0.96391989  0.70178789    -0.00400
H655        H  0.86725869  0.93072174  0.67992157     0.14200
H656        H  0.83551083  0.86926954  0.69932463     0.13900
C657        C  0.84961493  0.09925588  0.79896144     0.85700
C658        C  0.84135400  0.08566362  0.82572955    -0.54500
C659        C  0.83175685  0.06350534  0.81872520     0.08700
C660        C  0.83073264  0.05747050  0.78428682     0.19600
C661        C  0.85654299  0.07224800  0.78206969    -0.55200
C662        C  0.84672681  0.05050459  0.77375146     0.08800
C663        C  0.83674057  0.11000943  0.77835567    -0.54800
C664        C  0.82706621  0.08805635  0.76950592     0.09300
H665        H  0.84300672  0.09295691  0.84864502     0.13900
H666        H  0.82286675  0.03964567  0.77817886    -0.00400
H667        H  0.86823532  0.07090473  0.77664679     0.14200
H668        H  0.83525238  0.13299748  0.77133025     0.13900
C669        C  0.87458968  0.80337276  0.37565556     0.85700
C670        C  0.88723280  0.78355890  0.36159510    -0.54500
C671        C  0.89010031  0.75751002  0.37679081     0.08700
C672        C  0.87966265  0.75287424  0.40333655     0.19600
C673        C  0.86142372  0.78142136  0.37641966    -0.55200
C674        C  0.86390572  0.75441546  0.38978761     0.08800
C675        C  0.87876933  0.80723640  0.40861019    -0.54800
C676        C  0.88097911  0.78106633  0.42349350     0.09300
H677        H  0.89234095  0.78754724  0.34017946     0.13900
H678        H  0.88269439  0.73179602  0.41451675    -0.00400
H679        H  0.85067615  0.78775982  0.36802557     0.14200
H680        H  0.87871971  0.82885705  0.41989446     0.13900
C681        C  0.87282352  0.79851170  0.60142875     0.85700
C682        C  0.86112488  0.77350095  0.59973441    -0.54500
C683        C  0.86528192  0.74741712  0.58553935     0.08700
C684        C  0.88141570  0.74960114  0.57366329     0.19600
C685        C  0.88608223  0.78210777  0.61632549    -0.55200
C686        C  0.89080210  0.75701728  0.60133916     0.08800
C687        C  0.87731827  0.80339990  0.56887589    -0.54800
C688        C  0.88149302  0.77802136  0.55380960     0.09300
H689        H  0.85009040  0.77701299  0.60819260     0.13900
H690        H  0.88605298  0.72937850  0.56285967    -0.00400
H691        H  0.89057160  0.78806264  0.63794917     0.14200
H692        H  0.87588589  0.82481068  0.55780983     0.13900
C693        C  0.72980881  0.55124317  0.62114369     0.85700
C694        C  0.73480277  0.53201232  0.64775725    -0.54500
C695        C  0.72370993  0.52288489  0.66558529     0.08700
C696        C  0.70835897  0.53440665  0.65634365     0.19600
C697        C  0.71765762  0.53198665  0.60544126    -0.55200
C698        C  0.70645144  0.52240598  0.62405314     0.08800
C699        C  0.72136900  0.57741889  0.63679971    -0.54800
C700        C  0.71010705  0.56888976  0.65494792     0.09300
H701        H  0.74620623  0.52546947  0.65203007     0.13900
H702        H  0.69956478  0.52725332  0.67181458    -0.00400
H703        H  0.71845266  0.52520979  0.58221411     0.14200
H704        H  0.72509268  0.60033984  0.63737255     0.13900
C705        C  0.73031391  0.41591048  0.80705627     0.85700
C706        C  0.73344583  0.43362380  0.77864970    -0.54500
C707        C  0.72140962  0.44187859  0.76296675     0.08700
C708        C  0.70676675  0.43216542  0.77701133     0.19600
C709        C  0.71952690  0.43760267  0.82432719    -0.55200
C710        C  0.70726013  0.44708569  0.80848761     0.08800
C711        C  0.72066110  0.38947758  0.79713071    -0.54800
C712        C  0.70844922  0.39753374  0.78116111     0.09300
H713        H  0.74445974  0.44056379  0.77197635     0.13900
H714        H  0.69708621  0.43896586  0.76334352    -0.00400
H715        H  0.72192213  0.44653920  0.84600830     0.14200
H716        H  0.72364734  0.36624110  0.80118481     0.13900
In717      In  0.82040407  0.41014485  0.86124110     1.36900
C718        C  0.84654177  0.43174002  0.84379292     0.76800
O719        O  0.82052747  0.44974703  0.89237548    -0.61600
O720        O  0.82483807  0.40562953  0.90863002    -0.52500
C721        C  0.79185894  0.41281122  0.84469506     0.69500
O722        O  0.80218490  0.42052779  0.82725973    -0.47400
C723        C  0.82649320  0.35213158  0.86478460     0.74200
O724        O  0.84217642  0.40585381  0.83690232    -0.59200
O725        O  0.82170752  0.36765615  0.88635587    -0.49300
O726        O  0.83642681  0.44848209  0.85419377    -0.55700
C727        C  0.82408776  0.43329896  0.91409322     0.84400
O728        O  0.79629082  0.40527508  0.86998381    -0.57600
O729        O  0.82744453  0.36634784  0.84050597    -0.60900
In730      In  0.81714568  0.40039239  0.08238653     1.36900
C731        C  0.84260924  0.41812663  0.10562817     0.76800
O732        O  0.81808009  0.35579187  0.10436240    -0.61600
O733        O  0.81921928  0.35786934  0.05715456    -0.52500
C734        C  0.78826704  0.40416344  0.09127568     0.69500
O735        O  0.79726521  0.40550265  0.11292414    -0.47400
C736        C  0.82354232  0.42841916  0.03361127     0.74200
O737        O  0.83935958  0.39113777  0.10137806    -0.59200
O738        O  0.82441966  0.40028922  0.03605793    -0.49300
O739        O  0.83181236  0.43618433  0.10329957    -0.55700
C740        C  0.81948814  0.34148727  0.08000116     0.84400
O741        O  0.79412268  0.40351879  0.06588075    -0.57600
O742        O  0.81872935  0.44248795  0.05622739    -0.60900
C743        C  0.73287041  0.40839162  0.13098399     0.85700
C744        C  0.72222317  0.38687098  0.14669809    -0.54500
C745        C  0.71621977  0.39819598  0.17236664     0.08700
C746        C  0.72163656  0.43000543  0.18007430     0.19600
C747        C  0.72293267  0.43676028  0.12680223    -0.55200
C748        C  0.71717774  0.44906909  0.15274399     0.08800
C749        C  0.74430306  0.41790760  0.15442700    -0.54800
C750        C  0.73850572  0.42926492  0.17968406     0.09300
H751        H  0.71795560  0.36677371  0.13621601     0.13900
H752        H  0.71814096  0.43716343  0.20224457    -0.00400
H753        H  0.71875734  0.44337745  0.10539742     0.14200
H754        H  0.75614888  0.41820078  0.15031093     0.13900
C755        C  0.74064329  0.54357280  0.30877637     0.85700
C756        C  0.73148170  0.56361704  0.28720301    -0.54500
C757        C  0.72311094  0.54792973  0.26697829     0.08700
C758        C  0.72588902  0.51371214  0.26848439     0.19600
C759        C  0.72897332  0.52188198  0.32174503    -0.55200
C760        C  0.72140807  0.50599410  0.30056830     0.08800
C761        C  0.75030849  0.52480571  0.28735814    -0.54800
C762        C  0.74291502  0.50908354  0.26680411     0.09300
H763        H  0.73128973  0.58772084  0.28730107     0.13900
H764        H  0.71969658  0.50057233  0.25163903    -0.00400
H765        H  0.72679188  0.51963880  0.34544646     0.14200
H766        H  0.76232586  0.52395640  0.28829481     0.13900
In767      In  0.81800167  0.58824466  0.57624634     1.36900
C768        C  0.84594490  0.57686428  0.59134236     0.76800
O769        O  0.81553882  0.54117109  0.55907836    -0.61600
O770        O  0.81395148  0.57848442  0.52919677    -0.52500
C771        C  0.78999761  0.58314138  0.59366200     0.69500
O772        O  0.80050733  0.57015862  0.60742144    -0.47400
C773        C  0.82544325  0.64515840  0.57366744     0.74200
O774        O  0.83595670  0.58062419  0.61105615    -0.59200
O775        O  0.82244217  0.63004570  0.55052462    -0.49300
O776        O  0.84117789  0.57476720  0.56501495    -0.55700
C777        C  0.81290918  0.55050726  0.53301753     0.84400
O778        O  0.79415582  0.60136321  0.57409055    -0.57600
O779        O  0.82242072  0.63222027  0.59790435    -0.60900
In780      In  0.82034222  0.59104245  0.38198389     1.36900
C781        C  0.84882743  0.57582597  0.38190868     0.76800
O782        O  0.82860467  0.63185171  0.35916899    -0.61600
O783        O  0.82069170  0.63546100  0.40407364    -0.52500
C784        C  0.79512677  0.58569380  0.35396443     0.69500
O785        O  0.80690770  0.57387420  0.34356181    -0.47400
C786        C  0.81203409  0.55316027  0.42276948     0.74200
O787        O  0.84060726  0.57171080  0.35928736    -0.59200
O788        O  0.81134630  0.58127496  0.42645134    -0.49300
O789        O  0.84203301  0.58653642  0.40421894    -0.55700
C790        C  0.82729697  0.64775733  0.38255421     0.84400
O791        O  0.79685383  0.60328340  0.37571953    -0.57600
O792        O  0.81732182  0.54427878  0.39816226    -0.60900
C793        C  0.61918352  0.30121068  0.60330378     0.85700
C794        C  0.60763341  0.27676353  0.60992154    -0.54500
C795        C  0.60989329  0.25023422  0.59490223     0.08700
C796        C  0.62351400  0.25101510  0.57369124     0.19600
C797        C  0.63444419  0.28622416  0.60843351    -0.55200
C798        C  0.63678425  0.25990058  0.59355203     0.08800
C799        C  0.61847087  0.30442899  0.56922898    -0.54800
C800        C  0.62089662  0.27860931  0.55348904     0.09300
H801        H  0.59845043  0.28009523  0.62524654     0.13900
H802        H  0.62541657  0.22973885  0.56120513    -0.00400
H803        H  0.64288743  0.29638386  0.62226750     0.14200
H804        H  0.61698019  0.32520513  0.55761944     0.13900
C805        C  0.63276913  0.29272779  0.37244960     0.85700
C806        C  0.64650889  0.27199284  0.37514140    -0.54500
C807        C  0.64497048  0.24761416  0.39285319     0.08700
C808        C  0.62929372  0.24610298  0.40660242     0.19600
C809        C  0.62079316  0.27054048  0.36129200    -0.55200
C810        C  0.61872596  0.24654066  0.37963169     0.08800
C811        C  0.62833830  0.30052318  0.40473324    -0.54800
C812        C  0.62686339  0.27644099  0.42317268     0.09300
H813        H  0.65675882  0.27688810  0.36402297     0.13900
H814        H  0.62766755  0.22605335  0.42063525    -0.00400
H815        H  0.61546119  0.27160003  0.33973245     0.14200
H816        H  0.62681854  0.32347410  0.41239260     0.13900
C817        C  0.65378416  0.59346828  0.78756155     0.85700
C818        C  0.66540392  0.60840855  0.76704793    -0.54500
C819        C  0.67458626  0.58886357  0.75244340     0.08700
C820        C  0.67185814  0.55589711  0.76113877     0.19600
C821        C  0.64598205  0.57024431  0.76743915    -0.55200
C822        C  0.65532889  0.55003253  0.75392125     0.08800
C823        C  0.66348422  0.57450253  0.80927479    -0.54800
C824        C  0.67278371  0.55435982  0.79538807     0.09300
H825        H  0.66630009  0.63239281  0.76395941     0.13900
H826        H  0.67975297  0.54001061  0.75028226    -0.00400
H827        H  0.63411808  0.57036781  0.76422952     0.14200
H828        H  0.66250845  0.57566842  0.83338601     0.13900
C829        C  0.64735172  0.39333199  0.66347767     0.85700
C830        C  0.65785168  0.37255380  0.68120002    -0.54500
C831        C  0.66939375  0.38670439  0.69393100     0.08700
C832        C  0.67020524  0.41996260  0.68625465     0.19600
C833        C  0.64350114  0.41943663  0.68518367    -0.55200
C834        C  0.65552331  0.43359099  0.69779955     0.08800
C835        C  0.65765929  0.40811996  0.63997011    -0.54800
C836        C  0.66940655  0.42330370  0.65186936     0.09300
H837        H  0.65588121  0.34895716  0.68510634     0.13900
H838        H  0.68050533  0.42776796  0.69583953    -0.00400
H839        H  0.63222268  0.42743395  0.68768495     0.14200
H840        H  0.65543117  0.40846502  0.61624226     0.13900
C841        C  0.65189349  0.57755040  0.16079920     0.85700
C842        C  0.66035846  0.55274426  0.14288835    -0.54500
C843        C  0.66812877  0.53274285  0.15985709     0.08700
C844        C  0.66598845  0.53856659  0.19370127     0.19600
C845        C  0.64182975  0.55998719  0.18258111    -0.55200
C846        C  0.64914744  0.53885964  0.19900790     0.08800
C847        C  0.66355177  0.59131132  0.18228228    -0.54800
C848        C  0.67115597  0.57086757  0.19889724     0.09300
H849        H  0.66010762  0.55163194  0.11874998     0.13900
H850        H  0.67194317  0.52245929  0.20826106    -0.00400
H851        H  0.63018230  0.56396174  0.18616964     0.14200
H852        H  0.66624199  0.61496096  0.18279334     0.13900
C853        C  0.65240947  0.38980268  0.29154273     0.85700
C854        C  0.66436315  0.41006245  0.30587487    -0.54500
C855        C  0.67142554  0.42853047  0.28666588     0.08700
C856        C  0.66510203  0.42644155  0.25456269     0.19600
C857        C  0.64168441  0.41344137  0.27832878    -0.55200
C858        C  0.64816843  0.43261724  0.25862583     0.08800
C859        C  0.65978188  0.37427151  0.26465742    -0.54800
C860        C  0.66675283  0.39274403  0.24540196     0.09300
H861        H  0.66700809  0.41003640  0.32948895     0.13900
H862        H  0.67048053  0.44197400  0.23900949    -0.00400
H863        H  0.63037576  0.41669639  0.28587092     0.14200
H864        H  0.65970400  0.35013548  0.26170706     0.13900
C865        C  0.62734247  0.68795704  0.85949585     0.85700
C866        C  0.61462282  0.70969056  0.85139730    -0.54500
C867        C  0.61404485  0.73505790  0.86839014     0.08700
C868        C  0.62594483  0.73617383  0.89288637     0.19600
C869        C  0.64160976  0.70684253  0.85977899    -0.55200
C870        C  0.64103275  0.73263967  0.87646224     0.08800
C871        C  0.62506553  0.68161213  0.89296961    -0.54800
C872        C  0.62416631  0.70668670  0.91059158     0.09300
H873        H  0.60698290  0.70573628  0.83316393     0.13900
H874        H  0.62490104  0.75681692  0.90665845    -0.00400
H875        H  0.65159268  0.69897407  0.84876416     0.14200
H876        H  0.62563622  0.65967478  0.90291462     0.13900
C877        C  0.62996233  0.68106906  0.08941396     0.85700
C878        C  0.64225790  0.70451235  0.09308262    -0.54500
C879        C  0.63987905  0.73141157  0.07974716     0.08700
C880        C  0.62493944  0.73207899  0.06269470     0.19600
C881        C  0.61602761  0.69851697  0.10115452    -0.55200
C882        C  0.61322171  0.72500189  0.08663428     0.08800
C883        C  0.62787863  0.67819563  0.05556896    -0.54800
C884        C  0.62555261  0.70462977  0.04114223     0.09300
H885        H  0.65235643  0.69941810  0.10472942     0.13900
H886        H  0.62237041  0.75362637  0.05168674    -0.00400
H887        H  0.60986217  0.69229631  0.12088855     0.14200
H888        H  0.62887448  0.65693412  0.04374628     0.13900
C889        C  0.06234549  0.38040331  0.35885264     0.85700
C890        C  0.07606987  0.40095914  0.35609293    -0.54500
C891        C  0.08812991  0.39240203  0.37284297     0.08700
C892        C  0.08506010  0.36396579  0.39171660     0.19600
C893        C  0.06819978  0.34853340  0.35229664    -0.55200
C894        C  0.07999389  0.33952800  0.36899092     0.08800
C895        C  0.05946652  0.38094898  0.39321686    -0.54800
C896        C  0.07115763  0.37216986  0.41092230     0.09300
H897        H  0.07598869  0.42098764  0.34254498     0.13900
H898        H  0.09479935  0.35695205  0.40507675    -0.00400
H899        H  0.06343051  0.33423825  0.33519537     0.14200
H900        H  0.04921557  0.38893696  0.40298814     0.13900
C901        C  0.06224946  0.38702229  0.59635765     0.85700
C902        C  0.06649050  0.35376101  0.60312486    -0.54500
C903        C  0.07837033  0.34233556  0.58752042     0.08700
C904        C  0.08468577  0.36532046  0.56503380     0.19600
C905        C  0.07668719  0.40475110  0.59937430    -0.55200
C906        C  0.08857918  0.39354263  0.58389532     0.08800
C907        C  0.05957422  0.38546947  0.56192311    -0.54800
C908        C  0.07135443  0.37493619  0.54494278     0.09300
H909        H  0.06049758  0.34015556  0.61894884     0.13900
H910        H  0.09434708  0.35631249  0.55247573    -0.00400
H911        H  0.07717571  0.42520908  0.61249132     0.14200
H912        H  0.04909388  0.39107846  0.55163584     0.13900
C913        C  0.06909968  0.57859936  0.86595087     0.85700
C914        C  0.07372067  0.61122984  0.86160056    -0.54500
C915        C  0.08377951  0.62171741  0.88128795     0.08700
C916        C  0.08872542  0.59816846  0.90446684     0.19600
C917        C  0.08382750  0.56020990  0.86673405    -0.55200
C918        C  0.09451349  0.57072700  0.88603059     0.08800
C919        C  0.06416273  0.57680312  0.89946909    -0.54800
C920        C  0.07440582  0.58705323  0.92006496     0.09300
H921        H  0.06954216  0.62494875  0.84346966     0.13900
H922        H  0.09698479  0.60760618  0.92005383    -0.00400
H923        H  0.08507059  0.53985924  0.85383093     0.14200
H924        H  0.05378897  0.56701760  0.90638385     0.13900
C925        C  0.06878546  0.56786145  0.10599332     0.85700
C926        C  0.08348280  0.54996227  0.10648146    -0.54500
C927        C  0.09413638  0.55959178  0.08756155     0.08700
C928        C  0.08921778  0.58745795  0.06941422     0.19600
C929        C  0.07421519  0.60022910  0.11287466    -0.55200
C930        C  0.08480512  0.61108302  0.09371428     0.08800
C931        C  0.06416397  0.56839218  0.07254879    -0.54800
C932        C  0.07474459  0.57867368  0.05306828     0.09300
H933        H  0.08617117  0.53303267  0.12261312     0.13900
H934        H  0.09781155  0.59532650  0.05367889    -0.00400
H935        H  0.07053647  0.61243883  0.13254533     0.14200
H936        H  0.05333020  0.56132259  0.06506673     0.13900
C937        C  0.93395699  0.40577994  0.86246461     0.85700
C938        C  0.92871006  0.37297869  0.85826456    -0.54500
C939        C  0.91598424  0.36539608  0.87306619     0.08700
C940        C  0.90983731  0.39197721  0.89220424     0.19600
C941        C  0.92045023  0.42515043  0.85481583    -0.55200
C942        C  0.90773773  0.41794321  0.86932250     0.08800
C943        C  0.93541918  0.40785789  0.89713044    -0.54800
C944        C  0.92286409  0.40112525  0.91315384     0.09300
H945        H  0.93478295  0.35659630  0.84519853     0.13900
H946        H  0.89970332  0.38664886  0.90496579    -0.00400
H947        H  0.92070672  0.44202475  0.83746296     0.14200
H948        H  0.94577565  0.41265777  0.90825921     0.13900
C949        C  0.93000011  0.40249676  0.09934835     0.85700
C950        C  0.91579965  0.42148300  0.10293101    -0.54500
C951        C  0.90427947  0.41288943  0.08574289     0.08700
C952        C  0.90830665  0.38702276  0.06372853     0.19600
C953        C  0.92455562  0.36960940  0.10309789    -0.55200
C954        C  0.91322790  0.36085750  0.08421835     0.08800
C955        C  0.93364458  0.40504405  0.06552785    -0.54800
C956        C  0.92231552  0.39709340  0.04659157     0.09300
H957        H  0.91425694  0.43889647  0.11961659     0.13900
H958        H  0.89950438  0.38174196  0.04761854    -0.00400
H959        H  0.92885738  0.35518469  0.12048356     0.14200
H960        H  0.94425294  0.41270856  0.05735849     0.13900
C961        C  0.02389625  0.52980495  0.20067956    -0.03200
C962        C  0.98112142  0.53197826  0.28574142    -0.03200
C963        C  0.01557602  0.42916647  0.27639412    -0.03200
C964        C  0.97619166  0.45447289  0.18416831    -0.03200
C965        C  0.97655679  0.53917151  0.69621832    -0.03200
C966        C  0.02541383  0.53947046  0.77180789    -0.03200
C967        C  0.01746781  0.44910475  0.68200670    -0.03200
C968        C  0.98291208  0.45017945  0.78275201    -0.03200
C969        C  0.93751355  0.59998574  0.36979673     0.85700
C970        C  0.92335438  0.58114795  0.36907042    -0.54500
C971        C  0.91178258  0.59196698  0.38570473     0.08700
C972        C  0.91553902  0.62127128  0.40286146     0.19600
C973        C  0.93160725  0.63157741  0.36067546    -0.55200
C974        C  0.92053371  0.64332932  0.37830839     0.08800
C975        C  0.94105414  0.60317176  0.40372311    -0.54800
C976        C  0.92958172  0.61372568  0.42154566     0.09300
H977        H  0.92247044  0.56093832  0.35565697     0.13900
H978        H  0.90612393  0.63006060  0.41634263    -0.00400
H979        H  0.93485725  0.64314944  0.34065648     0.14200
H980        H  0.95169997  0.59665606  0.41289134     0.13900
C981        C  0.93454053  0.60054358  0.60770417     0.85700
C982        C  0.93226746  0.63345601  0.61682529    -0.54500
C983        C  0.92265682  0.64922721  0.59962855     0.08700
C984        C  0.91598623  0.63038468  0.57355857     0.19600
C985        C  0.91869338  0.58740354  0.60569255    -0.55200
C986        C  0.90873524  0.60326496  0.58873153     0.08800
C987        C  0.93896472  0.60164782  0.57399446    -0.54800
C988        C  0.92919451  0.61688872  0.55555445     0.09300
H989        H  0.93733332  0.64316350  0.63657582     0.13900
H990        H  0.90827365  0.64268436  0.55908490    -0.00400
H991        H  0.91553501  0.56714054  0.61716288     0.14200
H992        H  0.94849498  0.58974429  0.56511102     0.13900
C993        C  0.92622920  0.64154214  0.47205083    -0.02600
C994        C  0.93012815  0.61512840  0.45591230     0.07100
C995        C  0.93361910  0.58934473  0.47306716    -0.02700
C996        C  0.93296594  0.58973865  0.50486715    -0.02700
C997        C  0.92992460  0.61661847  0.52111877     0.07200
C998        C  0.92663799  0.64259502  0.50390325    -0.02900
Br999      Br  0.92315862  0.68083406  0.52303818    -0.01500
Br1000     Br  0.92024523  0.67711561  0.45092954    -0.01500
Br1001     Br  0.93454715  0.55183073  0.52535027    -0.01500
Br1002     Br  0.93788238  0.55179242  0.45340770    -0.01500
C1003       C  0.01565615  0.42745319  0.73904140    -0.02600
C1004       C  0.01035709  0.42987150  0.70853761     0.07100
C1005       C  0.99658857  0.41575220  0.70523244    -0.02700
C1006       C  0.98593580  0.41799641  0.72906223    -0.02700
C1007       C  0.99076586  0.42683216  0.75867668     0.07200
C1008       C  0.00570639  0.41838877  0.76137943    -0.02900
Br1009     Br  0.00969515  0.37784018  0.77425027    -0.01500
Br1010     Br  0.03584624  0.42365992  0.75286570    -0.01500
Br1011     Br  0.96865724  0.39389049  0.72296320    -0.01500
Br1012     Br  0.99719541  0.37929205  0.68135798    -0.01500
C1013       C  0.00557410  0.52167357  0.81111295    -0.02600
C1014       C  0.01768136  0.51540190  0.79266392     0.07100
C1015       C  0.02216426  0.48545625  0.79702956    -0.02700
C1016       C  0.01085368  0.46346363  0.80136672    -0.02700
C1017       C  0.99548948  0.47180187  0.79812673     0.07200
C1018       C  0.99333588  0.50192012  0.81003727    -0.02900
Br1019     Br  0.97744309  0.51494164  0.83614134    -0.01500
Br1020     Br  0.01049361  0.53779042  0.85007113    -0.01500
Br1021     Br  0.01582338  0.42922837  0.82581368    -0.01500
Br1022     Br  0.04042406  0.48081857  0.81846178    -0.01500
C1023       C  0.02632513  0.52491562  0.71645436    -0.02600
C1024       C  0.03278980  0.52082613  0.74381634     0.07100
C1025       C  0.04306773  0.49516910  0.74001868    -0.02700
C1026       C  0.04088443  0.47473390  0.71408664    -0.02700
C1027       C  0.02654990  0.47474561  0.69943801     0.07200
C1028       C  0.01837010  0.50010564  0.70867983    -0.02900
Br1029     Br  0.00096838  0.49393891  0.73101099    -0.01500
Br1030     Br  0.03949701  0.54111013  0.68657155    -0.01500
Br1031     Br  0.05754622  0.45361258  0.69721576    -0.01500
Br1032     Br  0.06137404  0.49077518  0.76154235    -0.01500
C1033       C  0.94845936  0.55805088  0.67970429    -0.02600
C1034       C  0.96446584  0.55913123  0.67787492     0.07100
C1035       C  0.96926408  0.58031848  0.65625882    -0.02700
C1036       C  0.96070712  0.58723249  0.63050644    -0.02700
C1037       C  0.94503614  0.58446934  0.63110769     0.07200
C1038       C  0.93936296  0.57408239  0.65895452    -0.02900
Br1039     Br  0.92015994  0.58796455  0.67334230    -0.01500
Br1040     Br  0.93696507  0.53879920  0.71031841    -0.01500
Br1041     Br  0.97066393  0.60992681  0.59998683    -0.01500
Br1042     Br  0.97712279  0.61703402  0.67168235    -0.01500
C1043       C  0.96604520  0.52327472  0.75264282    -0.02600
C1044       C  0.96855297  0.51661904  0.72098095     0.07100
C1045       C  0.96354060  0.48607551  0.71504587    -0.02700
C1046       C  0.96411622  0.46414254  0.73827079    -0.02700
C1047       C  0.97178100  0.47154261  0.76443529     0.07200
C1048       C  0.96620722  0.49941578  0.77390455    -0.02900
Br1049     Br  0.94889147  0.49645172  0.79976700    -0.01500
Br1050     Br  0.95552926  0.55870391  0.76705233    -0.01500
Br1051     Br  0.94576404  0.44312484  0.74615119    -0.01500
Br1052     Br  0.94919793  0.47649874  0.68424492    -0.01500
C1053       C  0.99821588  0.52280346  0.65516534    -0.02600
C1054       C  0.98508259  0.51787033  0.67188706     0.07100
C1055       C  0.97951996  0.49064172  0.66161839    -0.02700
C1056       C  0.98897056  0.46481457  0.66322181    -0.02700
C1057       C  0.00486049  0.46902546  0.66403483     0.07200
C1058       C  0.00843782  0.49804091  0.65172063    -0.02900
Br1059     Br  0.02638080  0.50398273  0.62929357    -0.01500
Br1060     Br  0.99573319  0.54513937  0.61857361    -0.01500
Br1061     Br  0.98000612  0.42980108  0.64594632    -0.01500
Br1062     Br  0.96719708  0.49500624  0.62620837    -0.01500
C1063       C  0.98602217  0.57006709  0.74357296    -0.02600
C1064       C  0.98881899  0.56006628  0.71425579     0.07100
C1065       C  0.00347710  0.57129102  0.70666091    -0.02700
C1066       C  0.01409263  0.57687411  0.73034994    -0.02700
C1067       C  0.01230444  0.56214815  0.75819519     0.07200
C1068       C  0.99679596  0.56444963  0.76638304    -0.02900
Br1069     Br  0.99051579  0.58107890  0.80447867    -0.01500
Br1070     Br  0.97726467  0.61005433  0.74484864    -0.01500
Br1071     Br  0.02999414  0.60487010  0.72609505    -0.01500
Br1072     Br  0.00940540  0.58712426  0.66882394    -0.01500
C1073       C  0.01126889  0.41062435  0.21892289    -0.02600
C1074       C  0.00636414  0.41289833  0.24892040     0.07100
C1075       C  0.99180783  0.40168972  0.24861598    -0.02700
C1076       C  0.98204695  0.40941410  0.22400796    -0.02700
C1077       C  0.98708790  0.42923335  0.20049594     0.07200
C1078       C  0.00276867  0.42422565  0.19568440    -0.02900
Br1079     Br  0.01123356  0.41554031  0.15661893    -0.01500
Br1080     Br  0.01951455  0.37177425  0.20834146    -0.01500
Br1081     Br  0.96304178  0.39033350  0.22108575    -0.01500
Br1082     Br  0.98994641  0.36241284  0.26597754    -0.01500
C1083       C  0.96729404  0.58487427  0.30593095    -0.02600
C1084       C  0.97128437  0.55331102  0.30892220     0.07100
C1085       C  0.96714753  0.54306711  0.33812395    -0.02700
C1086       C  0.95463766  0.55477222  0.35346296    -0.02700
C1087       C  0.95029808  0.58514061  0.34998762     0.07200
C1088       C  0.95885132  0.60072420  0.32854029    -0.02900
Br1089     Br  0.96370789  0.64228636  0.33618117    -0.01500
Br1090     Br  0.97364217  0.61089131  0.27473269    -0.01500
Br1091     Br  0.94584255  0.52892852  0.38265617    -0.01500
Br1092     Br  0.98159840  0.52895847  0.36664533    -0.01500
C1093       C  0.95753320  0.49838667  0.21471302    -0.02600
C1094       C  0.96642342  0.47052852  0.21108954     0.07100
C1095       C  0.96983855  0.46236989  0.23963512    -0.02700
C1096       C  0.97869537  0.48415948  0.25247407    -0.02700
C1097       C  0.97199983  0.51133208  0.26163874     0.07200
C1098       C  0.95920289  0.51667340  0.24276943    -0.02900
Br1099     Br  0.94369696  0.54309794  0.25691248    -0.01500
Br1100     Br  0.93933680  0.50298572  0.19305651    -0.01500
Br1101     Br  0.99825188  0.48611930  0.23858814    -0.01500
Br1102     Br  0.95218378  0.44933642  0.26062111    -0.01500
C1103       C  0.98210552  0.47833033  0.31170879    -0.02600
C1104       C  0.98956160  0.50600745  0.30536489     0.07100
C1105       C  0.00506196  0.50319358  0.31226362    -0.02700
C1106       C  0.01147992  0.47399046  0.31416035    -0.02700
C1107       C  0.00507429  0.45016865  0.29794841     0.07200
C1108       C  0.98926896  0.45050003  0.30359499    -0.02900
Br1109     Br  0.97653975  0.41615331  0.30618550    -0.01500
Br1110     Br  0.96169582  0.47810139  0.32523633    -0.01500
Br1111     Br  0.02127107  0.46374731  0.35124934    -0.01500
Br1112     Br  0.01553480  0.53236004  0.33568529    -0.01500
C1113       C  0.03438043  0.50406518  0.25179230    -0.02600
C1114       C  0.02989093  0.50180557  0.22082080     0.07100
C1115       C  0.03234892  0.47146191  0.21008784    -0.02700
C1116       C  0.03316787  0.44754897  0.23082244    -0.02700
C1117       C  0.02731916  0.45155649  0.25982587     0.07200
C1118       C  0.03321752  0.47849364  0.27111559    -0.02900
Br1119     Br  0.04761774  0.47300618  0.30244282    -0.01500
Br1120     Br  0.04935960  0.53235390  0.26322030    -0.01500
Br1121     Br  0.04833435  0.41732861  0.22476599    -0.01500
Br1122     Br  0.03954086  0.46020766  0.17107678    -0.01500
C1123       C  0.01172436  0.49397399  0.15595019    -0.02600
C1124       C  0.01094988  0.51700645  0.17820250     0.07100
C1125       C  0.99697803  0.53061167  0.17381273    -0.02700
C1126       C  0.98407459  0.51226237  0.17297809    -0.02700
C1127       C  0.98610979  0.48060548  0.16931590     0.07200
C1128       C  0.99871506  0.47571988  0.15099193    -0.02900
Br1129     Br  0.99464236  0.46007803  0.11146377    -0.01500
Br1130     Br  0.02384711  0.50248550  0.12149446    -0.01500
Br1131     Br  0.96700440  0.53105998  0.15543444    -0.01500
Br1132     Br  0.99761316  0.56642054  0.14945363    -0.01500
C1133       C  0.01888145  0.56237458  0.25358030    -0.02600
C1134       C  0.01606895  0.55579891  0.22280449     0.07100
C1135       C  0.00196977  0.56893855  0.21754662    -0.02700
C1136       C  0.98998838  0.55851652  0.23450142    -0.02700
C1137       C  0.99254863  0.55059152  0.26531303     0.07200
C1138       C  0.00668919  0.56116774  0.27501843    -0.02900
Br1139     Br  0.00574343  0.59215998  0.30570090    -0.01500
Br1140     Br  0.03279197  0.59483869  0.25892458    -0.01500
Br1141     Br  0.97141065  0.57080751  0.21693014    -0.01500
Br1142     Br  0.00024825  0.61226522  0.21432341    -0.01500
C1143       C  0.94059516  0.43673168  0.14169160    -0.02600
C1144       C  0.94259232  0.41263274  0.12138537     0.07100
C1145       C  0.95667279  0.39849534  0.12355972    -0.02700
C1146       C  0.96717054  0.40848052  0.14579478    -0.02700
C1147       C  0.96564210  0.43828396  0.15968306     0.07200
C1148       C  0.95318346  0.45390244  0.14820989    -0.02900
Br1149     Br  0.95705311  0.47690571  0.11303790    -0.01500
Br1150     Br  0.92741449  0.42950815  0.17440143    -0.01500
Br1151     Br  0.98136292  0.37786941  0.15597919    -0.01500
Br1152     Br  0.96126146  0.36493779  0.09760878    -0.01500
C1153       C  0.92515715  0.42647273  0.96508908    -0.02600
C1154       C  0.92251728  0.40040371  0.94753371     0.07100
C1155       C  0.92020773  0.37335873  0.96326304    -0.02700
C1156       C  0.92068474  0.37222328  0.99498110    -0.02700
C1157       C  0.92305111  0.39827423  0.01244577     0.07200
C1158       C  0.92531989  0.42546299  0.99698207    -0.02900
Br1159     Br  0.92817727  0.46190011  0.01953835    -0.01500
Br1160     Br  0.92793960  0.46433349  0.94572406    -0.01500
Br1161     Br  0.91913401  0.33391568  0.01426098    -0.01500
Br1162     Br  0.91690208  0.33678951  0.94195443    -0.01500
C1163       C  0.95124596  0.40188597  0.81488747    -0.02600
C1164       C  0.94771943  0.41523236  0.84306267     0.07100
C1165       C  0.95731155  0.43854394  0.85218898    -0.02700
C1166       C  0.97080386  0.44410392  0.83707035    -0.02700
C1167       C  0.97372361  0.43245676  0.80784611     0.07200
C1168       C  0.96483003  0.40748581  0.80039100    -0.02900
Br1169     Br  0.97459262  0.37035776  0.79098931    -0.01500
Br1170     Br  0.93755840  0.37860188  0.79147505    -0.01500
Br1171     Br  0.98675468  0.45090414  0.86464897    -0.01500
Br1172     Br  0.95153597  0.46764000  0.88208130    -0.01500
C1173       C  0.05042813  0.52594276  0.17230294    -0.02600
C1174       C  0.03730070  0.54286585  0.18005198     0.07100
C1175       C  0.03574772  0.56943073  0.16241533    -0.02700
C1176       C  0.04423396  0.57474771  0.13611029    -0.02700
C1177       C  0.05652657  0.55656300  0.12835176     0.07200
C1178       C  0.05795658  0.52979425  0.14483917    -0.02900
Br1179     Br  0.06587927  0.49362389  0.12644123    -0.01500
Br1180     Br  0.06330739  0.50707125  0.20096741    -0.01500
Br1181     Br  0.03838918  0.60727161  0.11026356    -0.01500
Br1182     Br  0.03081894  0.60628567  0.18140772    -0.01500
C1183       C  0.07477970  0.61079727  0.97272021    -0.02600
C1184       C  0.07271650  0.58520580  0.95424680     0.07100
C1185       C  0.07011960  0.55756703  0.96894959    -0.02700
C1186       C  0.06989351  0.55565424  0.00082751    -0.02700
C1187       C  0.07278893  0.58108067  0.01910056     0.07200
C1188       C  0.07470708  0.60880467  0.00444520    -0.02900
Br1189     Br  0.07615413  0.64508502  0.02779343    -0.01500
Br1190     Br  0.07744612  0.64945606  0.95497372    -0.01500
Br1191     Br  0.06623837  0.51745619  0.01931285    -0.01500
Br1192     Br  0.06844293  0.52125030  0.94565093    -0.01500
C1193       C  0.05297337  0.55769950  0.78623520    -0.02600
C1194       C  0.03742955  0.55755173  0.79127205     0.07100
C1195       C  0.03339277  0.57642173  0.81560298    -0.02700
C1196       C  0.04277468  0.57969955  0.84101994    -0.02700
C1197       C  0.05789105  0.57016823  0.84001480     0.07200
C1198       C  0.06304336  0.56396009  0.81019384    -0.02900
Br1199     Br  0.08329542  0.57225539  0.79926590    -0.01500
Br1200     Br  0.06028375  0.56311617  0.74609665    -0.01500
Br1201     Br  0.03541454  0.60480787  0.87326556    -0.01500
Br1202     Br  0.02259708  0.61229331  0.80563040    -0.01500
C1203       C  0.04925272  0.39466454  0.64869549    -0.02600
C1204       C  0.04982175  0.40115993  0.61764620     0.07100
C1205       C  0.03918054  0.42263348  0.60815587    -0.02700
C1206       C  0.02721736  0.43232244  0.62670340    -0.02700
C1207       C  0.02723452  0.42838003  0.65863041     0.07200
C1208       C  0.03743214  0.40506456  0.66745300    -0.02900
Br1209     Br  0.03310051  0.37700328  0.69851411    -0.01500
Br1210     Br  0.06577613  0.37528640  0.66852793    -0.01500
Br1211     Br  0.00967526  0.44084432  0.60357849    -0.01500
Br1212     Br  0.04227859  0.44624371  0.57302726    -0.01500
C1213       C  0.06582500  0.39825432  0.46178325    -0.02600
C1214       C  0.07068622  0.37254158  0.44533673     0.07100
C1215       C  0.07579239  0.34770818  0.46221935    -0.02700
C1216       C  0.07576155  0.34814950  0.49406207    -0.02700
C1217       C  0.07120296  0.37394345  0.51049638     0.07200
C1218       C  0.06685950  0.39937666  0.49354675    -0.02900
Br1219     Br  0.06479237  0.43780646  0.51297307    -0.01500
Br1220     Br  0.05888208  0.43375541  0.44127379    -0.01500
Br1221     Br  0.08188148  0.31245053  0.51458523    -0.01500
Br1222     Br  0.08235865  0.31177327  0.44216023    -0.01500
C1223       C  0.05112804  0.39298198  0.30627584    -0.02600
C1224       C  0.04902306  0.38852626  0.33747418     0.07100
C1225       C  0.03393691  0.38531620  0.34587847    -0.02700
C1226       C  0.02231982  0.39718897  0.32748342    -0.02700
C1227       C  0.02514267  0.40631811  0.29710401     0.07200
C1228       C  0.03875770  0.39427112  0.28691393    -0.02900
Br1229     Br  0.03687595  0.35555471  0.26862330    -0.01500
Br1230     Br  0.06983539  0.38517960  0.28721394    -0.01500
Br1231     Br  0.00322114  0.39591604  0.34552511    -0.01500
Br1232     Br  0.02865675  0.35647646  0.37622834    -0.01500
C1233       C  0.61235025  0.71737281  0.96090115    -0.02600
C1234       C  0.62408944  0.70497896  0.94396241     0.07100
C1235       C  0.63641386  0.69279432  0.95908081    -0.02700
C1236       C  0.63735961  0.69529336  0.99039786    -0.02700
C1237       C  0.62521765  0.70600964  0.00757620     0.07200
C1238       C  0.61270383  0.71702513  0.99238297    -0.02900
Br1239     Br  0.59583707  0.73145212  0.01429698    -0.01500
Br1240     Br  0.59543570  0.73411612  0.94134342    -0.01500
Br1241     Br  0.65636403  0.68955036  0.00842854    -0.01500
Br1242     Br  0.65299680  0.67602536  0.93686973    -0.01500
C1243       C  0.65485706  0.61891334  0.12186455    -0.02600
C1244       C  0.64508784  0.60130446  0.13922238     0.07100
C1245       C  0.62967585  0.60476969  0.13266916    -0.02700
C1246       C  0.62439279  0.63039140  0.11684179    -0.02700
C1247       C  0.63450149  0.65078288  0.10406769     0.07200
C1248       C  0.64941519  0.64077108  0.10236893    -0.02900
Br1249     Br  0.66242137  0.65286920  0.07048070    -0.01500
Br1250     Br  0.67609285  0.61345556  0.12227372    -0.01500
Br1251     Br  0.60356837  0.63346455  0.10748717    -0.01500
Br1252     Br  0.61616505  0.57178853  0.13657889    -0.01500
C1253       C  0.63475224  0.49059795  0.20369789    -0.02600
C1254       C  0.64177650  0.51535490  0.21742781     0.07100
C1255       C  0.64378224  0.51440837  0.24855444    -0.02700
C1256       C  0.64181522  0.48727812  0.26377872    -0.02700
C1257       C  0.64064064  0.46058489  0.24749360     0.07200
C1258       C  0.63458403  0.46266643  0.21871751    -0.02900
Br1259     Br  0.62610240  0.42776257  0.20068545    -0.01500
Br1260     Br  0.62781359  0.49325080  0.16316841    -0.01500
Br1261     Br  0.63348449  0.48787770  0.30311166    -0.01500
Br1262     Br  0.64805358  0.55005973  0.27063210    -0.01500
C1263       C  0.63899230  0.64339232  0.78970682    -0.02600
C1264       C  0.64273129  0.61555742  0.80277431     0.07100
C1265       C  0.63455793  0.60805542  0.82869730    -0.02700
C1266       C  0.62714635  0.63085703  0.84532859    -0.02700
C1267       C  0.62900627  0.66132862  0.83741764     0.07200
C1268       C  0.63315453  0.66680247  0.80739992    -0.02900
Br1269     Br  0.63031237  0.70558541  0.78909459    -0.01500
Br1270     Br  0.63777688  0.64741167  0.74706817    -0.01500
Br1271     Br  0.61131157  0.61946083  0.87179353    -0.01500
Br1272     Br  0.63145561  0.56666264  0.83896267    -0.01500
C1273       C  0.64032553  0.50180751  0.74303237    -0.02600
C1274       C  0.65101934  0.52337169  0.73514561     0.07100
C1275       C  0.66131592  0.51481500  0.71384586    -0.02700
C1276       C  0.66517192  0.48529378  0.70957117    -0.02700
C1277       C  0.65456091  0.46287829  0.71502183     0.07200
C1278       C  0.64185200  0.47171108  0.73224547    -0.02900
Br1279     Br  0.62774265  0.44259838  0.74571207    -0.01500
Br1280     Br  0.62301145  0.51334661  0.76574365    -0.01500
Br1281     Br  0.68628982  0.48046357  0.70534403    -0.01500
Br1282     Br  0.66908368  0.54293906  0.68727625    -0.01500
C1283       C  0.65045374  0.33426131  0.35642423    -0.02600
C1284       C  0.63628521  0.32101498  0.35376272     0.07100
C1285       C  0.62661956  0.33318524  0.33186703    -0.02700
C1286       C  0.63186877  0.35396760  0.31059615    -0.02700
C1287       C  0.64631937  0.36601151  0.31300671     0.07200
C1288       C  0.65594262  0.35265630  0.33408044    -0.02900
Br1289     Br  0.67729643  0.35219461  0.32939144    -0.01500
Br1290     Br  0.66304381  0.32955646  0.39091744    -0.01500
Br1291     Br  0.62017420  0.35963520  0.27497191    -0.01500
Br1292     Br  0.60549515  0.32761177  0.33410904    -0.01500
C1293       C  0.62059911  0.32855143  0.65357583    -0.02600
C1294       C  0.61811337  0.33020848  0.62243603     0.07100
C1295       C  0.61831676  0.35941574  0.60999968    -0.02700
C1296       C  0.62679528  0.38209573  0.62400107    -0.02700
C1297       C  0.63365076  0.37622505  0.65172847     0.07200
C1298       C  0.62749390  0.35250379  0.66840994    -0.02900
Br1299     Br  0.62714948  0.35372442  0.71131467    -0.01500
Br1300     Br  0.61556981  0.29339891  0.67619755    -0.01500
Br1301     Br  0.62607702  0.42243335  0.60891923    -0.01500
Br1302     Br  0.60366993  0.37108656  0.58090771    -0.01500
C1303       C  0.61331995  0.25999605  0.50245719    -0.02600
C1304       C  0.62216890  0.27878695  0.52014436     0.07100
C1305       C  0.63192529  0.29873219  0.50582293    -0.02700
C1306       C  0.63336523  0.29831713  0.47446398    -0.02700
C1307       C  0.62448394  0.27926536  0.45650104     0.07200
C1308       C  0.61408210  0.26101567  0.47107629    -0.02900
Br1309     Br  0.59981436  0.23888324  0.44868454    -0.01500
Br1310     Br  0.59954712  0.23341900  0.52083896    -0.01500
Br1311     Br  0.64867371  0.32243627  0.45772706    -0.01500
Br1312     Br  0.64450180  0.32529989  0.52897353    -0.01500
C1313       C  0.87292538  0.57057442  0.41003129    -0.02600
C1314       C  0.86527338  0.57093026  0.38239043     0.07100
C1315       C  0.87370093  0.57037843  0.35567486    -0.02700
C1316       C  0.88923003  0.57404441  0.35662080    -0.02700
C1317       C  0.89647716  0.57894855  0.38437965     0.07200
C1318       C  0.88835498  0.57477717  0.41091387    -0.02900
Br1319     Br  0.89831729  0.57398374  0.44886932    -0.01500
Br1320     Br  0.86259282  0.56402944  0.44734056    -0.01500
Br1321     Br  0.89964985  0.57797568  0.31897828    -0.01500
Br1322     Br  0.86421530  0.56761771  0.31707545    -0.01500
C1323       C  0.86721095  0.60880173  0.60368511    -0.02600
C1324       C  0.86207916  0.58002954  0.59685299     0.07100
C1325       C  0.87234200  0.55848827  0.58617368    -0.02700
C1326       C  0.88755440  0.56570175  0.58331249    -0.02700
C1327       C  0.89238418  0.59563111  0.58771894     0.07200
C1328       C  0.88137515  0.61745290  0.59459950    -0.02900
Br1329     Br  0.88288879  0.65844777  0.58280619    -0.01500
Br1330     Br  0.85487233  0.63724604  0.62489534    -0.01500
Br1331     Br  0.90115228  0.53541236  0.56889696    -0.01500
Br1332     Br  0.86545244  0.51896241  0.57630553    -0.01500
C1333       C  0.81959258  0.51598839  0.49198354    -0.02600
C1334       C  0.80849828  0.53124989  0.50818981     0.07100
C1335       C  0.79519374  0.53913656  0.49395285    -0.02700
C1336       C  0.79487913  0.54036151  0.46278987    -0.02700
C1337       C  0.80776876  0.53296210  0.44674955     0.07200
C1338       C  0.81902987  0.51624484  0.46065916    -0.02900
Br1339     Br  0.83478676  0.49873616  0.43718451    -0.01500
Br1340     Br  0.83659374  0.49997678  0.51232100    -0.01500
Br1341     Br  0.77807697  0.55731210  0.44228706    -0.01500
Br1342     Br  0.77874151  0.55422599  0.51713433    -0.01500
C1343       C  0.69506770  0.49362329  0.31612454    -0.02600
C1344       C  0.70920461  0.48440188  0.30637676     0.07100
C1345       C  0.71120334  0.45425908  0.29859914    -0.02700
C1346       C  0.69900638  0.43603660  0.29243401    -0.02700
C1347       C  0.68447895  0.44719760  0.29599112     0.07200
C1348       C  0.68286728  0.47432075  0.31228630    -0.02900
Br1349     Br  0.66544592  0.48170159  0.33539477    -0.01500
Br1350     Br  0.69275925  0.53043855  0.33811770    -0.01500
Br1351     Br  0.70262847  0.39467592  0.28472672    -0.01500
Br1352     Br  0.73017900  0.43634126  0.30444026    -0.01500
C1353       C  0.71016068  0.55551772  0.21757269    -0.02600
C1354       C  0.71088500  0.56158148  0.24845208     0.07100
C1355       C  0.69931102  0.57963775  0.26113235    -0.02700
C1356       C  0.68638121  0.58611488  0.24422697    -0.02700
C1357       C  0.68550737  0.57681596  0.21426660     0.07200
C1358       C  0.69838680  0.56617070  0.20057027    -0.02900
Br1359     Br  0.70138560  0.57253027  0.15892132    -0.01500
Br1360     Br  0.72435767  0.53166835  0.19678318    -0.01500
Br1361     Br  0.67066870  0.61064773  0.26040309    -0.01500
Br1362     Br  0.70049416  0.59528184  0.30119248    -0.01500
C1363       C  0.75440690  0.58832555  0.33312407    -0.02600
C1364       C  0.75120128  0.55733306  0.33202539     0.07100
C1365       C  0.76153118  0.53746130  0.34562317    -0.02700
C1366       C  0.77621619  0.54636035  0.34966688    -0.02700
C1367       C  0.78018182  0.57638680  0.34503918     0.07200
C1368       C  0.76901540  0.59773173  0.33884772    -0.02900
Br1369     Br  0.77382144  0.63973551  0.33737062    -0.01500
Br1370     Br  0.73870756  0.61776849  0.33501532    -0.01500
Br1371     Br  0.79084945  0.51678022  0.36124148    -0.01500
Br1372     Br  0.75634774  0.49677819  0.35565154    -0.01500
C1373       C  0.68834943  0.39437571  0.17389649    -0.02600
C1374       C  0.70232558  0.38638340  0.18560728     0.07100
C1375       C  0.70270018  0.36759628  0.21063971    -0.02700
C1376       C  0.68968598  0.36347044  0.22755068    -0.02700
C1377       C  0.67703224  0.38119629  0.22121660     0.07200
C1378       C  0.67561332  0.39110634  0.19178867    -0.02900
Br1379     Br  0.65642090  0.38888967  0.17391723    -0.01500
Br1380     Br  0.68644134  0.40692075  0.13304426    -0.01500
Br1381     Br  0.68883867  0.33093323  0.25556712    -0.01500
Br1382     Br  0.72068555  0.34673766  0.22072584    -0.01500
C1383       C  0.69371202  0.47180664  0.17428745    -0.02600
C1384       C  0.70523519  0.47328228  0.15311130     0.07100
C1385       C  0.70328664  0.49435957  0.12941680    -0.02700
C1386       C  0.69007791  0.51217116  0.12758917    -0.02700
C1387       C  0.67865676  0.50841187  0.14892578     0.07200
C1388       C  0.68012517  0.48411567  0.16768810    -0.02900
Br1389     Br  0.66339368  0.46263014  0.17902588    -0.01500
Br1390     Br  0.69614054  0.46724222  0.21661925    -0.01500
Br1391     Br  0.68745730  0.53908013  0.09453361    -0.01500
Br1392     Br  0.71944494  0.50381907  0.10301766    -0.01500
C1393       C  0.75009800  0.43774744  0.22957681    -0.02600
C1394       C  0.74719549  0.44778355  0.20048803     0.07100
C1395       C  0.75099562  0.47747540  0.19295502    -0.02700
C1396       C  0.75333238  0.49831290  0.21611890    -0.02700
C1397       C  0.75088594  0.48924022  0.24541883     0.07200
C1398       C  0.75302963  0.45899092  0.25192416    -0.02900
Br1399     Br  0.76468688  0.44882473  0.28632715    -0.01500
Br1400     Br  0.75040588  0.39580897  0.23843548    -0.01500
Br1401     Br  0.76061787  0.53808399  0.20904104    -0.01500
Br1402     Br  0.75206026  0.49009069  0.15204412    -0.01500
C1403       C  0.86487874  0.44438523  0.08604836    -0.02600
C1404       C  0.85833578  0.42681861  0.10857304     0.07100
C1405       C  0.86753885  0.40993450  0.12747018    -0.02700
C1406       C  0.88282628  0.40754337  0.12163941    -0.02700
C1407       C  0.88886757  0.42062869  0.09556543     0.07200
C1408       C  0.88001397  0.44046866  0.07889672    -0.02900
Br1409     Br  0.88856485  0.46146209  0.04576350    -0.01500
Br1410     Br  0.85305086  0.47254602  0.06380273    -0.01500
Br1411     Br  0.89481310  0.38329446  0.14782165    -0.01500
Br1412     Br  0.85883483  0.38817781  0.16009536    -0.01500
C1413       C  0.76646866  0.37429951  0.10657603    -0.02600
C1414       C  0.77215856  0.40094886  0.09469257     0.07100
C1415       C  0.76233962  0.42135081  0.08114366    -0.02700
C1416       C  0.74700650  0.41713419  0.08377148    -0.02700
C1417       C  0.74148863  0.39581791  0.10403144     0.07200
C1418       C  0.75107272  0.37115092  0.11023108    -0.02900
Br1419     Br  0.74370259  0.33456359  0.12708342    -0.01500
Br1420     Br  0.77973162  0.34200733  0.11730061    -0.01500
Br1421     Br  0.73394890  0.43616176  0.05568244    -0.01500
Br1422     Br  0.76968888  0.45528901  0.05957885    -0.01500
C1423       C  0.87234240  0.42611290  0.82321840    -0.02600
C1424       C  0.86264960  0.43926705  0.84433245     0.07100
C1425       C  0.86883243  0.45266724  0.87014758    -0.02700
C1426       C  0.88371721  0.44661517  0.87798218    -0.02700
C1427       C  0.89293616  0.42959428  0.85881713     0.07200
C1428       C  0.88751038  0.42209013  0.82998234    -0.02900
Br1429     Br  0.89996800  0.40188483  0.80111713    -0.01500
Br1430     Br  0.86459775  0.41230285  0.78547736    -0.01500
Br1431     Br  0.89140761  0.46123149  0.91525261    -0.01500
Br1432     Br  0.85705450  0.47881365  0.89536032    -0.01500
C1433       C  0.83960969  0.43137607  0.95873114    -0.02600
C1434       C  0.82744621  0.44440742  0.94390132     0.07100
C1435       C  0.81698070  0.46179893  0.95982470    -0.02700
C1436       C  0.81721246  0.46138378  0.99114062    -0.02700
C1437       C  0.82754229  0.44271829  0.00562876     0.07200
C1438       C  0.83967141  0.43063877  0.98979976    -0.02900
Br1439     Br  0.85543257  0.40983070  0.01045503    -0.01500
Br1440     Br  0.85519366  0.41090874  0.93671634    -0.01500
Br1441     Br  0.80228970  0.48295534  0.01362094    -0.01500
Br1442     Br  0.80099332  0.48179064  0.93932672    -0.01500
C1443       C  0.70274937  0.50231753  0.82743134    -0.02600
C1444       C  0.69735723  0.47425156  0.81634096     0.07100
C1445       C  0.68205066  0.47354094  0.80977435    -0.02700
C1446       C  0.67347848  0.49999261  0.80868563    -0.02700
C1447       C  0.68017913  0.52800854  0.81030506     0.07200
C1448       C  0.69435233  0.52919081  0.82306282    -0.02900
Br1449     Br  0.70100782  0.56700805  0.83854128    -0.01500
Br1450     Br  0.72028835  0.50513453  0.85169544    -0.01500
Br1451     Br  0.65236369  0.49817931  0.81190721    -0.01500
Br1452     Br  0.67194266  0.43672688  0.80521310    -0.01500
C1453       C  0.68379186  0.37497290  0.77217530    -0.02600
C1454       C  0.69881552  0.37525283  0.76542900     0.07100
C1455       C  0.70301946  0.36315835  0.73757883    -0.02700
C1456       C  0.69281797  0.36348827  0.71373778    -0.02700
C1457       C  0.67834017  0.37406491  0.71888541     0.07200
C1458       C  0.67341878  0.37638456  0.74884281    -0.02900
Br1459     Br  0.65300579  0.38213524  0.75859170    -0.01500
Br1460     Br  0.67826131  0.36454075  0.81225075    -0.01500
Br1461     Br  0.69839061  0.34938591  0.67465293    -0.01500
Br1462     Br  0.72132939  0.34133837  0.73419612    -0.01500
C1463       C  0.74955420  0.41348876  0.85023035    -0.02600
C1464       C  0.74547379  0.40661747  0.82057216     0.07100
C1465       C  0.75683589  0.39511242  0.80132186    -0.02700
C1466       C  0.77187870  0.39791014  0.80891958    -0.02700
C1467       C  0.77591472  0.41080807  0.83643370     0.07200
C1468       C  0.76461781  0.41731696  0.85762970    -0.02900
Br1469     Br  0.76940663  0.43272044  0.89678356    -0.01500
Br1470     Br  0.73541765  0.40949895  0.88226348    -0.01500
Br1471     Br  0.78692424  0.38280721  0.78175201    -0.01500
Br1472     Br  0.75221541  0.37579701  0.76381892    -0.01500
C1473       C  0.68020871  0.50182382  0.62412958    -0.02600
C1474       C  0.69529593  0.49755670  0.61746051     0.07100
C1475       C  0.69968700  0.46776264  0.61074168    -0.02700
C1476       C  0.69125308  0.44320233  0.62135828    -0.02700
C1477       C  0.67744304  0.44816128  0.63545562     0.07200
C1478       C  0.67125701  0.47741254  0.63309680    -0.02900
Br1479     Br  0.65043157  0.48397486  0.63985299    -0.01500
Br1480     Br  0.67137850  0.53923542  0.61267142    -0.01500
Br1481     Br  0.69800665  0.40283312  0.61441191    -0.01500
Br1482     Br  0.71436154  0.46085764  0.58027266    -0.01500
C1483       C  0.68875338  0.60111351  0.67365502    -0.02600
C1484       C  0.70308193  0.58967777  0.67743659     0.07100
C1485       C  0.70952781  0.59357644  0.70551441    -0.02700
C1486       C  0.70040455  0.59479385  0.73102657    -0.02700
C1487       C  0.68495866  0.59772372  0.72771017     0.07200
C1488       C  0.67966766  0.60615440  0.69905518    -0.02900
Br1489     Br  0.65957757  0.61879814  0.69300748    -0.01500
Br1490     Br  0.68214364  0.61055912  0.63409440    -0.01500
Br1491     Br  0.70921534  0.59525828  0.76972973    -0.01500
Br1492     Br  0.72860466  0.61205258  0.70644712    -0.01500
C1493       C  0.75473491  0.53738946  0.59701008    -0.02600
C1494       C  0.74370666  0.55958642  0.60251868     0.07100
C1495       C  0.74774499  0.58969154  0.59721355    -0.02700
C1496       C  0.76284809  0.59771681  0.59610852    -0.02700
C1497       C  0.77406815  0.57540795  0.59731262     0.07200
C1498       C  0.76981582  0.54506146  0.59600325    -0.02900
Br1499     Br  0.78450393  0.51352326  0.59164923    -0.01500
Br1500     Br  0.74931817  0.49629017  0.59048921    -0.01500
Br1501     Br  0.76797079  0.63952678  0.59407053    -0.01500
Br1502     Br  0.73308974  0.61828126  0.58369240    -0.01500
C1503       C  0.72492568  0.47078983  0.68454235    -0.02600
C1504       C  0.72605919  0.50154138  0.68993874     0.07100
C1505       C  0.72962978  0.51135347  0.71865370    -0.02700
C1506       C  0.72765672  0.49215734  0.74280844    -0.02700
C1507       C  0.72289557  0.46251638  0.73774647     0.07200
C1508       C  0.72292647  0.45131000  0.70839219    -0.02900
Br1509     Br  0.72258913  0.40934561  0.70046937    -0.01500
Br1510     Br  0.73064234  0.45481497  0.64653172    -0.01500
Br1511     Br  0.73338340  0.50587288  0.78172553    -0.01500
Br1512     Br  0.74146107  0.54628790  0.72352664    -0.01500
C1513       C  0.89728080  0.71050895  0.62981103    -0.02600
C1514       C  0.90197961  0.73492155  0.61272161     0.07100
C1515       C  0.91643087  0.73392575  0.60097469    -0.02700
C1516       C  0.92403936  0.70613185  0.59838455    -0.02700
C1517       C  0.91728171  0.67985471  0.60882432     0.07200
C1518       C  0.90531280  0.68327960  0.62890283    -0.02900
Br1519     Br  0.89930017  0.65066094  0.65383630    -0.01500
Br1520     Br  0.87976638  0.71419862  0.65384451    -0.01500
Br1521     Br  0.94402269  0.70430252  0.58351523    -0.01500
Br1522     Br  0.92637370  0.77097202  0.59381979    -0.01500
C1523       C  0.84305961  0.71592412  0.60252579    -0.02600
C1524       C  0.85462567  0.72128176  0.58133558     0.07100
C1525       C  0.85522436  0.70201003  0.55570967    -0.02700
C1526       C  0.84546184  0.67763213  0.55273257    -0.02700
C1527       C  0.83370455  0.67388495  0.57306610     0.07200
C1528       C  0.83204913  0.69448742  0.59670226    -0.02900
Br1529     Br  0.81454762  0.69309851  0.62160967    -0.01500
Br1530     Br  0.84279256  0.73300186  0.64242158    -0.01500
Br1531     Br  0.84941045  0.64760549  0.52212225    -0.01500
Br1532     Br  0.86919722  0.70657977  0.52364259    -0.01500
C1533       C  0.91483685  0.72944268  0.37465810    -0.02600
C1534       C  0.89981233  0.73173889  0.36657649     0.07100
C1535       C  0.89281210  0.70564970  0.35685855    -0.02700
C1536       C  0.89896236  0.67723856  0.36255940    -0.02700
C1537       C  0.91364706  0.67407749  0.37298041     0.07200
C1538       C  0.92188407  0.70081769  0.37697582    -0.02900
Br1539     Br  0.94250199  0.69854415  0.38757937    -0.01500
Br1540     Br  0.92589877  0.76564640  0.37963737    -0.01500
Br1541     Br  0.88626900  0.64394793  0.35714379    -0.01500
Br1542     Br  0.87577071  0.70920588  0.33173440    -0.01500
C1543       C  0.89487457  0.77789463  0.50392129    -0.02600
C1544       C  0.88154731  0.77760366  0.52032102     0.07100
C1545       C  0.86803014  0.77911607  0.50455845    -0.02700
C1546       C  0.86787902  0.78097422  0.47324197    -0.02700
C1547       C  0.88123537  0.78023431  0.45683690     0.07200
C1548       C  0.89471536  0.77934263  0.47243910    -0.02900
Br1549     Br  0.91300287  0.78198016  0.45079728    -0.01500
Br1550     Br  0.91344833  0.77703280  0.52421145    -0.01500
Br1551     Br  0.84901989  0.78357586  0.45337299    -0.01500
Br1552     Br  0.84937457  0.77655105  0.52509300    -0.01500
C1553       C  0.84313593  0.72392145  0.36428422    -0.02600
C1554       C  0.85281859  0.72888658  0.38927741     0.07100
C1555       C  0.85239056  0.70766367  0.41290014    -0.02700
C1556       C  0.84382971  0.68167207  0.41065480    -0.02700
C1557       C  0.83465185  0.67696608  0.38587385     0.07200
C1558       C  0.83398540  0.69842741  0.36322107    -0.02900
Br1559     Br  0.82042633  0.69236116  0.33037599    -0.01500
Br1560     Br  0.84283856  0.74856199  0.32871368    -0.01500
Br1561     Br  0.84592745  0.65080104  0.44076755    -0.01500
Br1562     Br  0.86273165  0.71253265  0.44991162    -0.01500
C1563       C  0.84522285  0.85681694  0.63329990    -0.02600
C1564       C  0.85395192  0.87568986  0.65159738     0.07100
C1565       C  0.86930809  0.86841499  0.65379015    -0.02700
C1566       C  0.87578200  0.84626648  0.63488331    -0.02700
C1567       C  0.86687155  0.82768495  0.61662934     0.07200
C1568       C  0.85181511  0.83625084  0.61358592    -0.02900
Br1569     Br  0.84030345  0.82583926  0.57892532    -0.01500
Br1570     Br  0.82382985  0.85565288  0.63660697    -0.01500
Br1571     Br  0.89700040  0.84702095  0.62951725    -0.01500
Br1572     Br  0.88118962  0.88073876  0.68735166    -0.01500
C1573       C  0.85095601  0.97002549  0.74504608    -0.02600
C1574       C  0.85314422  0.97414509  0.71480328     0.07100
C1575       C  0.85848068  0.00209152  0.70570618    -0.02700
C1576       C  0.85731114  0.02720096  0.72532215    -0.02700
C1577       C  0.85067105  0.02399522  0.75401529     0.07200
C1578       C  0.84821049  0.99445523  0.76384225    -0.02900
Br1579     Br  0.84100038  0.98498017  0.80221506    -0.01500
Br1580     Br  0.85774518  0.93309282  0.76155442    -0.01500
Br1581     Br  0.86509335  0.06484575  0.71233813    -0.01500
Br1582     Br  0.87149675  0.00321062  0.67185335    -0.01500
C1583       C  0.88974381  0.32810723  0.08545125    -0.02600
C1584       C  0.90545403  0.33032881  0.08578821     0.07100
C1585       C  0.91347600  0.30265506  0.08872852    -0.02700
C1586       C  0.90594518  0.27456074  0.09000250    -0.02700
C1587       C  0.89031676  0.27362426  0.09131440     0.07200
C1588       C  0.88281552  0.30119889  0.09275138    -0.02900
Br1589     Br  0.86391367  0.30401865  0.11163965    -0.01500
Br1590     Br  0.87621074  0.35813367  0.07082561    -0.01500
Br1591     Br  0.91701048  0.23742448  0.08938023    -0.01500
Br1592     Br  0.93477011  0.30197995  0.08685128    -0.01500
C1593       C  0.83642729  0.27026622  0.05038710    -0.02600
C1594       C  0.84165867  0.25796582  0.07722409     0.07100
C1595       C  0.83466913  0.26699150  0.10443350    -0.02700
C1596       C  0.82515563  0.29220060  0.10473124    -0.02700
C1597       C  0.82302826  0.30887861  0.07836643     0.07200
C1598       C  0.82708363  0.29557230  0.05078216    -0.02900
Br1599     Br  0.81994798  0.31126075  0.01324432    -0.01500
Br1600     Br  0.84154840  0.25189388  0.01295995    -0.01500
Br1601     Br  0.81550214  0.30392787  0.14166323    -0.01500
Br1602     Br  0.83972333  0.24955606  0.14269060    -0.01500
C1603       C  0.89370364  0.33175275  0.86244147    -0.02600
C1604       C  0.90890319  0.33460785  0.86978266     0.07100
C1605       C  0.91732044  0.30736831  0.87237643    -0.02700
C1606       C  0.91023129  0.27902075  0.87057253    -0.02700
C1607       C  0.89517084  0.27728846  0.86279673     0.07200
C1608       C  0.88779161  0.30376134  0.85517115    -0.02900
Br1609     Br  0.87075015  0.30195612  0.82982254    -0.01500
Br1610     Br  0.87944210  0.36356148  0.86560035    -0.01500
Br1611     Br  0.92100471  0.24254359  0.87896996    -0.01500
Br1612     Br  0.93815853  0.30779524  0.88187270    -0.01500
C1613       C  0.86354173  0.15023929  0.79380390    -0.02600
C1614       C  0.86117574  0.12301230  0.80909563     0.07100
C1615       C  0.87050558  0.11798831  0.83414874    -0.02700
C1616       C  0.87765726  0.14234271  0.84843393    -0.02700
C1617       C  0.87495226  0.17199085  0.83855691     0.07200
C1618       C  0.87000753  0.17484801  0.80869537    -0.02900
Br1619     Br  0.87272483  0.21184121  0.78730199    -0.01500
Br1620     Br  0.86207924  0.15191454  0.75114667    -0.01500
Br1621     Br  0.89394736  0.13395580  0.87501977    -0.01500
Br1622     Br  0.87488132  0.07773742  0.84716748    -0.01500
C1623       C  0.88505437  0.23766748  0.96172694    -0.02600
C1624       C  0.87571859  0.22000204  0.94367385     0.07100
C1625       C  0.86563369  0.20073852  0.95782554    -0.02700
C1626       C  0.86550336  0.19795488  0.98917934    -0.02700
C1627       C  0.87469103  0.21591618  0.00760366     0.07200
C1628       C  0.88455972  0.23565141  0.99327747    -0.02900
Br1629     Br  0.89835750  0.25865732  0.01640756    -0.01500
Br1630     Br  0.89880645  0.26455473  0.94355870    -0.01500
Br1631     Br  0.85178273  0.17022483  0.00560494    -0.01500
Br1632     Br  0.85050757  0.18060062  0.93459828    -0.01500
C1633       C  0.84303674  0.28136769  0.89817211    -0.02600
C1634       C  0.84635675  0.26449081  0.87234694     0.07100
C1635       C  0.83919783  0.27287209  0.84531094    -0.02700
C1636       C  0.83158479  0.30062412  0.84355221    -0.02700
C1637       C  0.83140461  0.32046097  0.86825736     0.07200
C1638       C  0.83661850  0.30999908  0.89611702    -0.02900
Br1639     Br  0.83669835  0.33492456  0.93166671    -0.01500
Br1640     Br  0.84607221  0.26431395  0.93685906    -0.01500
Br1641     Br  0.82162092  0.31146299  0.80688692    -0.01500
Br1642     Br  0.84026449  0.24886982  0.80941436    -0.01500
C1643       C  0.87341736  0.13045522  0.15180115    -0.02600
C1644       C  0.85860698  0.11944197  0.15074149     0.07100
C1645       C  0.84902296  0.13382753  0.13052240    -0.02700
C1646       C  0.85456092  0.15029521  0.10697891    -0.02700
C1647       C  0.86838656  0.16487850  0.10942768     0.07200
C1648       C  0.87821619  0.15305511  0.13132976    -0.02900
Br1649     Br  0.89893492  0.16275837  0.13012662    -0.01500
Br1650     Br  0.88633240  0.12118119  0.18468361    -0.01500
Br1651     Br  0.84192609  0.15247800  0.07258571    -0.01500
Br1652     Br  0.82795845  0.13759337  0.13756868    -0.01500
C1653       C  0.84833626  0.86467133  0.34803483    -0.02600
C1654       C  0.85633448  0.88151539  0.32687634     0.07100
C1655       C  0.87122972  0.87204509  0.32126748    -0.02700
C1656       C  0.87800676  0.84907533  0.33878170    -0.02700
C1657       C  0.86979394  0.83358199  0.36084074     0.07200
C1658       C  0.85559664  0.84544276  0.36761122    -0.02900
Br1659     Br  0.84608179  0.83946766  0.40551015    -0.01500
Br1660     Br  0.82691856  0.86401647  0.34909120    -0.01500
Br1661     Br  0.89927276  0.84519195  0.33712886    -0.01500
Br1662     Br  0.88161575  0.88362265  0.28567644    -0.01500
C1663       C  0.86513972  0.00017323  0.21887715    -0.02600
C1664       C  0.85982225  0.02912255  0.22539233     0.07100
C1665       C  0.85588769  0.03508320  0.25467314    -0.02700
C1666       C  0.85131082  0.01210236  0.27338785    -0.02700
C1667       C  0.85364882  0.98172103  0.26531446     0.07200
C1668       C  0.86195149  0.97619827  0.23862321    -0.02900
Br1669     Br  0.86858520  0.93663589  0.22769698    -0.01500
Br1670     Br  0.87997990  0.99597282  0.18816083    -0.01500
Br1671     Br  0.84162458  0.02480779  0.30876596    -0.01500
Br1672     Br  0.86265939  0.07185913  0.27136071    -0.01500
C1673       C  0.66422182  0.18054157  0.42723445    -0.02600
C1674       C  0.67258360  0.16872690  0.40326127     0.07100
C1675       C  0.67445454  0.18612926  0.37741943    -0.02700
C1676       C  0.66613315  0.21281171  0.37356233    -0.02700
C1677       C  0.65671682  0.22362696  0.39709792     0.07200
C1678       C  0.65747991  0.20884183  0.42483761    -0.02900
Br1679     Br  0.65086690  0.22823765  0.46088785    -0.01500
Br1680     Br  0.66037092  0.15723031  0.46262046    -0.01500
Br1681     Br  0.66743920  0.23142849  0.33469920    -0.01500
Br1682     Br  0.68865809  0.17350234  0.34733180    -0.01500
C1683       C  0.66375075  0.20320941  0.62610339    -0.02600
C1684       C  0.66723740  0.18706834  0.59955022     0.07100
C1685       C  0.66564843  0.20217483  0.57204007    -0.02700
C1686       C  0.65735907  0.22894536  0.57081220    -0.02700
C1687       C  0.65053573  0.24082300  0.59655201     0.07200
C1688       C  0.65559390  0.23040350  0.62458741    -0.02900
Br1689     Br  0.64987164  0.25026604  0.66135000    -0.01500
Br1690     Br  0.66954780  0.18833439  0.66481995    -0.01500
Br1691     Br  0.65665437  0.25102070  0.53447047    -0.01500
Br1692     Br  0.67487271  0.18740670  0.53572003    -0.01500
C1693       C  0.67947473  0.01548341  0.52188628    -0.02600
C1694       C  0.68958908  0.03249990  0.53847410     0.07100
C1695       C  0.70380019  0.03717085  0.52679726    -0.02700
C1696       C  0.70632890  0.03208302  0.49636873    -0.02700
C1697       C  0.69441096  0.02450777  0.47797807     0.07200
C1698       C  0.68188831  0.01158680  0.49105930    -0.02900
Br1699     Br  0.66748555  0.99243089  0.46612669    -0.01500
Br1700     Br  0.66212103  0.00005340  0.54088446    -0.01500
Br1701     Br  0.72526321  0.03950425  0.47878299    -0.01500
Br1702     Br  0.71900194  0.05423863  0.55132903    -0.01500
C1703       C  0.81788109  0.01837006  0.36917383    -0.02600
C1704       C  0.80259463  0.01548997  0.36398544     0.07100
C1705       C  0.79703456  0.98618105  0.36151005    -0.02700
C1706       C  0.80682778  0.96214316  0.35501718    -0.02700
C1707       C  0.82173444  0.96829021  0.34885260     0.07200
C1708       C  0.82749973  0.99387072  0.36296336    -0.02900
Br1709     Br  0.84790221  0.99407340  0.37538387    -0.01500
Br1710     Br  0.82527739  0.05533604  0.38485915    -0.01500
Br1711     Br  0.80057430  0.92130498  0.35919402    -0.01500
Br1712     Br  0.77632113  0.97923165  0.36700393    -0.01500
C1713       C  0.80775851  0.09478991  0.23029875    -0.02600
C1714       C  0.82305908  0.09586866  0.23463223     0.07100
C1715       C  0.82787137  0.10534237  0.26307066    -0.02700
C1716       C  0.81866710  0.10100980  0.28829442    -0.02700
C1717       C  0.80391155  0.09173749  0.28446268     0.07200
C1718       C  0.79814437  0.09218391  0.25502704    -0.02900
Br1719     Br  0.77741400  0.08874934  0.24756702    -0.01500
Br1720     Br  0.80020424  0.10423834  0.19144710    -0.01500
Br1721     Br  0.82591845  0.10977723  0.32756285    -0.01500
Br1722     Br  0.84367266  0.13383602  0.26562596    -0.01500
C1723       C  0.74569556  0.09183971  0.33211443    -0.02600
C1724       C  0.75795444  0.08742516  0.35139866     0.07100
C1725       C  0.75535417  0.09226929  0.38214367    -0.02700
C1726       C  0.74072258  0.09244658  0.39341865    -0.02700
C1727       C  0.72853629  0.08811968  0.37386009     0.07200
C1728       C  0.73113445  0.08962738  0.34293043    -0.02900
Br1729     Br  0.71486174  0.09012106  0.31497537    -0.01500
Br1730     Br  0.74853259  0.10405781  0.29155708    -0.01500
Br1731     Br  0.73790031  0.09866196  0.43567541    -0.01500
Br1732     Br  0.77139126  0.10480295  0.40767600    -0.01500
C1733       C  0.81696282  0.97701939  0.14476349    -0.02600
C1734       C  0.80240678  0.98505481  0.13761643     0.07100
C1735       C  0.79995415  0.01476164  0.12788055    -0.02700
C1736       C  0.81081460  0.03706749  0.13346727    -0.02700
C1737       C  0.82381704  0.02975466  0.14978942     0.07200
C1738       C  0.82750942  0.99908866  0.15126221    -0.02900
Br1739     Br  0.84748917  0.98698598  0.15664991    -0.01500
Br1740     Br  0.82267648  0.93577717  0.14181289    -0.01500
Br1741     Br  0.80736303  0.07687424  0.11923958    -0.01500
Br1742     Br  0.78128975  0.02591930  0.11058432    -0.01500
C1743       C  0.79079011  0.91570615  0.23754642    -0.02600
C1744       C  0.79518113  0.90738618  0.20893195     0.07100
C1745       C  0.80956744  0.89605769  0.20524014    -0.02700
C1746       C  0.82021417  0.89980998  0.22818897    -0.02700
C1747       C  0.81639692  0.91569000  0.25496609     0.07200
C1748       C  0.80131629  0.92336317  0.25905031    -0.02900
Br1749     Br  0.79434123  0.94679614  0.29158272    -0.01500
Br1750     Br  0.77040551  0.91110168  0.24802786    -0.01500
Br1751     Br  0.83992410  0.88477853  0.22103790    -0.01500
Br1752     Br  0.81324581  0.87019095  0.17146017    -0.01500
C1753       C  0.76260316  0.98472005  0.24392848    -0.02600
C1754       C  0.77261491  0.98941394  0.22009522     0.07100
C1755       C  0.78426898  0.00867606  0.22485420    -0.02700
C1756       C  0.78898110  0.01580281  0.25311856    -0.02700
C1757       C  0.77906505  0.01338217  0.27726023     0.07200
C1758       C  0.76579523  0.99685882  0.27247073    -0.02900
Br1759     Br  0.75296805  0.98620100  0.30527258    -0.01500
Br1760     Br  0.74395486  0.96461089  0.23817956    -0.01500
Br1761     Br  0.81000293  0.02099659  0.25554352    -0.01500
Br1762     Br  0.79170614  0.03123959  0.19286908    -0.01500
C1763       C  0.65804280  0.80622061  0.06343932    -0.02600
C1764       C  0.66611306  0.81215746  0.08959086     0.07100
C1765       C  0.66649039  0.79084718  0.11249367    -0.02700
C1766       C  0.65830282  0.76411707  0.10985222    -0.02700
C1767       C  0.65022856  0.75774880  0.08293633     0.07200
C1768       C  0.65135336  0.77838578  0.05920771    -0.02900
Br1769     Br  0.64581630  0.76828007  0.01904995    -0.01500
Br1770     Br  0.65457337  0.83723911  0.03408283    -0.01500
Br1771     Br  0.65824210  0.73876569  0.14491334    -0.01500
Br1772     Br  0.67830594  0.79849678  0.14768600    -0.01500
C1773       C  0.73409977  0.88915622  0.12621431    -0.02600
C1774       C  0.72278460  0.91122019  0.12488278     0.07100
C1775       C  0.72682265  0.94164381  0.12398444    -0.02700
C1776       C  0.74169282  0.94989453  0.12774612    -0.02700
C1777       C  0.75269641  0.92797234  0.13451169     0.07200
C1778       C  0.74904296  0.89756326  0.12946533    -0.02900
Br1779     Br  0.76425207  0.86855855  0.11913480    -0.01500
Br1780     Br  0.72926714  0.84714207  0.12418812    -0.01500
Br1781     Br  0.74673455  0.99158240  0.12293467    -0.01500
Br1782     Br  0.71216587  0.97243243  0.11590620    -0.01500
C1783       C  0.66413545  0.79769130  0.90622058    -0.02600
C1784       C  0.67218633  0.80656682  0.88087691     0.07100
C1785       C  0.67195298  0.78839637  0.85511286    -0.02700
C1786       C  0.66239746  0.76348134  0.85336580    -0.02700
C1787       C  0.65348965  0.75534215  0.87845931     0.07200
C1788       C  0.65576892  0.77139150  0.90544493    -0.02900
Br1789     Br  0.64909580  0.75677192  0.94300751    -0.01500
Br1790     Br  0.66303486  0.82274803  0.94183735    -0.01500
Br1791     Br  0.66146776  0.74329211  0.81520916    -0.01500
Br1792     Br  0.68490823  0.79780667  0.82212311    -0.01500
C1793       C  0.70626541  0.93896567  0.97519378    -0.02600
C1794       C  0.69310677  0.94535539  0.95975123     0.07100
C1795       C  0.68150506  0.96077852  0.97437936    -0.02700
C1796       C  0.68176620  0.96320464  0.00564970    -0.02700
C1797       C  0.69320467  0.94889449  0.02141845     0.07200
C1798       C  0.70625920  0.94039691  0.00641091    -0.02900
Br1799     Br  0.72306623  0.92628926  0.02888923    -0.01500
Br1800     Br  0.72348148  0.92489044  0.95360907    -0.01500
Br1801     Br  0.66551787  0.98148645  0.02706912    -0.01500
Br1802     Br  0.66440617  0.97410197  0.95243587    -0.01500
C1803       C  0.81850563  0.99813786  0.86401794    -0.02600
C1804       C  0.80316154  0.00313506  0.86089925     0.07100
C1805       C  0.79841044  0.03331182  0.85793366    -0.02700
C1806       C  0.80865943  0.05556092  0.84970317    -0.02700
C1807       C  0.82312846  0.04698371  0.84222963     0.07200
C1808       C  0.82856267  0.02089759  0.85603514    -0.02900
Br1809     Br  0.84919006  0.01795421  0.86637161    -0.01500
Br1810     Br  0.82549359  0.96019266  0.87834333    -0.01500
Br1811     Br  0.80388070  0.09771896  0.85223360    -0.01500
Br1812     Br  0.77819854  0.04433247  0.86446454    -0.01500
C1813       C  0.81561150  0.90929878  0.78685833    -0.02600
C1814       C  0.80115402  0.92124357  0.78485265     0.07100
C1815       C  0.79391556  0.91869113  0.75683960    -0.02700
C1816       C  0.80228904  0.91218660  0.73073684    -0.02700
C1817       C  0.81773484  0.90903000  0.73240516     0.07200
C1818       C  0.82350039  0.90120395  0.76060492    -0.02900
Br1819     Br  0.83893129  0.87119780  0.76301821    -0.01500
Br1820     Br  0.82392129  0.90109044  0.82535210    -0.01500
Br1821     Br  0.79271291  0.89925019  0.69470347    -0.01500
Br1822     Br  0.77273380  0.92278263  0.75382358    -0.01500
C1823       C  0.75387088  0.90454300  0.85759205    -0.02600
C1824       C  0.75687582  0.93558083  0.85511201     0.07100
C1825       C  0.74497897  0.95566949  0.86177066    -0.02700
C1826       C  0.73028364  0.94540135  0.86375228    -0.02700
C1827       C  0.72712417  0.91475506  0.85977488     0.07200
C1828       C  0.73910853  0.89426036  0.85775196    -0.02900
Br1829     Br  0.73544604  0.85183058  0.85472861    -0.01500
Br1830     Br  0.76923811  0.87688088  0.86979210    -0.01500
Br1831     Br  0.71460322  0.97335670  0.87439436    -0.01500
Br1832     Br  0.74857985  0.99712254  0.87080958    -0.01500
C1833       C  0.82380517  0.99378731  0.63568807    -0.02600
C1834       C  0.81875030  0.96450122  0.63914293     0.07100
C1835       C  0.80478540  0.95801214  0.62689842    -0.02700
C1836       C  0.79467078  0.98185446  0.62104925    -0.02700
C1837       C  0.79851435  0.01174014  0.62867834     0.07200
C1838       C  0.81366302  0.01759229  0.63228656    -0.02900
Br1839     Br  0.82071042  0.05769925  0.62994930    -0.01500
Br1840     Br  0.84401619  0.99909465  0.62512519    -0.01500
Br1841     Br  0.77571577  0.97281164  0.60460977    -0.01500
Br1842     Br  0.79943566  0.91722505  0.61893069    -0.01500
C1843       C  0.80767522  0.10535396  0.69389837    -0.02600
C1844       C  0.79349286  0.09443472  0.69911732     0.07100
C1845       C  0.78944049  0.08921129  0.72863111    -0.02700
C1846       C  0.80023240  0.08532426  0.75087954    -0.02700
C1847       C  0.81523526  0.09253358  0.74550342     0.07200
C1848       C  0.81852781  0.10459329  0.71676608    -0.02900
Br1849     Br  0.83781546  0.11793708  0.70629099    -0.01500
Br1850     Br  0.81097715  0.12585689  0.65685425    -0.01500
Br1851     Br  0.79369019  0.06831104  0.78719485    -0.01500
Br1852     Br  0.76905159  0.09478130  0.73911222    -0.01500
C1853       C  0.74509699  0.10151959  0.62355907    -0.02600
C1854       C  0.74929829  0.07145364  0.62916462     0.07100
C1855       C  0.73817605  0.04935706  0.62614553    -0.02700
C1856       C  0.72317600  0.05738523  0.62768301    -0.02700
C1857       C  0.71892053  0.08770965  0.62629800     0.07200
C1858       C  0.72993915  0.10965004  0.62255579    -0.02900
Br1859     Br  0.72428734  0.15097756  0.61659232    -0.01500
Br1860     Br  0.75959656  0.12976487  0.60986037    -0.01500
Br1861     Br  0.70850595  0.02615262  0.63003105    -0.01500
Br1862     Br  0.74314748  0.00771481  0.61976608    -0.01500
C1863       C  0.78340748  0.99728300  0.72141292    -0.02600
C1864       C  0.77139540  0.01558943  0.71506649     0.07100
C1865       C  0.76153696  0.02327656  0.73864055    -0.02700
C1866       C  0.76536505  0.01579942  0.76819498    -0.02700
C1867       C  0.77856393  0.99940284  0.77423114     0.07200
C1868       C  0.78829335  0.99336969  0.75021873    -0.02900
Br1869     Br  0.80933337  0.98756235  0.75293177    -0.01500
Br1870     Br  0.79206676  0.97373987  0.69075801    -0.01500
Br1871     Br  0.75380537  0.03306482  0.80039673    -0.01500
Br1872     Br  0.74234169  0.04169486  0.73207281    -0.01500
C1873       C  0.42168876  0.83985554  0.49820885    -0.02600
C1874       C  0.42734845  0.86446070  0.51511125     0.07100
C1875       C  0.43148680  0.88992143  0.49794290    -0.02700
C1876       C  0.43163057  0.88964116  0.46596262    -0.02700
C1877       C  0.42693113  0.86426460  0.44907774     0.07200
C1878       C  0.42094446  0.84027612  0.46624162    -0.02900
Br1879     Br  0.41036778  0.80781268  0.44771439    -0.01500
Br1880     Br  0.41450090  0.80433213  0.51760162    -0.01500
Br1881     Br  0.43599794  0.92686574  0.44574687    -0.01500
Br1882     Br  0.43469646  0.92783422  0.51736523    -0.01500
C1883       C  0.51058896  0.01237620  0.25188297    -0.02600
C1884       C  0.51800459  0.03612183  0.26580920     0.07100
C1885       C  0.51452085  0.06515498  0.25369834    -0.02700
C1886       C  0.50419973  0.06837643  0.22854988    -0.02700
C1887       C  0.49641044  0.04266260  0.21642624     0.07200
C1888       C  0.50048514  0.01551089  0.23002239    -0.02900
Br1889     Br  0.49300195  0.97830770  0.21763908    -0.01500
Br1890     Br  0.51378760  0.97193175  0.26338662    -0.01500
Br1891     Br  0.50311547  0.10684484  0.20973082    -0.01500
Br1892     Br  0.52371363  0.10009591  0.27077035    -0.01500
C1893       C  0.45344454  0.91758342  0.29396930    -0.02600
C1894       C  0.46621801  0.93331087  0.30415281     0.07100
C1895       C  0.46881761  0.92846666  0.33574997    -0.02700
C1896       C  0.46240943  0.90454187  0.35186711    -0.02700
C1897       C  0.44965274  0.89007070  0.34154024     0.07200
C1898       C  0.44681754  0.89412276  0.31061617    -0.02900
Br1899     Br  0.43371345  0.86777411  0.28935165    -0.01500
Br1900     Br  0.43811701  0.93955125  0.27417887    -0.01500
Br1901     Br  0.47410418  0.88756369  0.38359535    -0.01500
Br1902     Br  0.47323594  0.95959375  0.36429783    -0.01500
C1903       C  0.46487531  0.00508823  0.26325070    -0.02600
C1904       C  0.46745504  0.97425013  0.25737745     0.07100
C1905       C  0.46209674  0.97029147  0.22601579    -0.02700
C1906       C  0.46297213  0.99485818  0.20402298    -0.02700
C1907       C  0.47084837  0.02174915  0.21060367     0.07200
C1908       C  0.46932329  0.02758884  0.24250961    -0.02900
Br1909     Br  0.47102708  0.06626197  0.26047611    -0.01500
Br1910     Br  0.44513272  0.01406604  0.27763716    -0.01500
Br1911     Br  0.44944092  0.99725329  0.17110749    -0.01500
Br1912     Br  0.45294016  0.93534259  0.20944871    -0.01500
C1913       C  0.50160129  0.96171488  0.32153679    -0.02600
C1914       C  0.48869080  0.97209677  0.30390330     0.07100
C1915       C  0.48744602  0.00404873  0.30866853    -0.02700
C1916       C  0.50025820  0.02252507  0.31224829    -0.02700
C1917       C  0.51507200  0.00991269  0.31327748     0.07200
C1918       C  0.51442289  0.98094900  0.32649604    -0.02900
Br1919     Br  0.52890066  0.97131125  0.35642114    -0.01500
Br1920     Br  0.50330421  0.92362936  0.34088287    -0.01500
Br1921     Br  0.49723359  0.06557966  0.31560211    -0.01500
Br1922     Br  0.47015664  0.02092175  0.32826966    -0.01500
C1923       C  0.54376399  0.95115372  0.24672874    -0.02600
C1924       C  0.53691792  0.96056379  0.21894663     0.07100
C1925       C  0.54105570  0.99163581  0.21491215    -0.02700
C1926       C  0.54235536  0.01209696  0.23965308    -0.02700
C1927       C  0.53985901  0.00279187  0.27000546     0.07200
C1928       C  0.54458903  0.97169062  0.27254930    -0.02900
Br1929     Br  0.55465896  0.95852195  0.30773502    -0.01500
Br1930     Br  0.55824713  0.91917888  0.24545949    -0.01500
Br1931     Br  0.54754452  0.05344716  0.23152074    -0.01500
Br1932     Br  0.55340466  0.00372901  0.18185817    -0.01500
C1933       C  0.50335146  0.96013502  0.15650045    -0.02600
C1934       C  0.51644427  0.96436594  0.17401797     0.07100
C1935       C  0.52136908  0.99326509  0.16621715    -0.02700
C1936       C  0.51154034  0.01804179  0.16877929    -0.02700
C1937       C  0.49560841  0.01412247  0.16799534     0.07200
C1938       C  0.49248043  0.98487330  0.15443317    -0.02900
Br1939     Br  0.47680986  0.98048578  0.12639367    -0.01500
Br1940     Br  0.50593389  0.93436182  0.12190859    -0.01500
Br1941     Br  0.52114421  0.05639998  0.16758910    -0.01500
Br1942     Br  0.53019943  0.99584868  0.12703949    -0.01500
C1943       C  0.49663569  0.91499160  0.20976347    -0.02600
C1944       C  0.51206917  0.92146648  0.21779718     0.07100
C1945       C  0.51339632  0.91011369  0.24844468    -0.02700
C1946       C  0.50083957  0.91159104  0.26954566    -0.02700
C1947       C  0.48762813  0.92736961  0.26135095     0.07200
C1948       C  0.48473404  0.91582834  0.23223495    -0.02900
Br1949     Br  0.47214192  0.88081813  0.23324185    -0.01500
Br1950     Br  0.49133803  0.89533104  0.17320307    -0.01500
Br1951     Br  0.49698840  0.87496706  0.29124715    -0.01500
Br1952     Br  0.52918052  0.88393505  0.26022679    -0.01500
C1953       C  0.50803840  0.07230255  0.74737157    -0.02600
C1954       C  0.50456302  0.06791637  0.71674588     0.07100
C1955       C  0.48911145  0.07373763  0.71501855    -0.02700
C1956       C  0.47897333  0.05894788  0.73455178    -0.02700
C1957       C  0.48348574  0.05033449  0.76445883     0.07200
C1958       C  0.49723972  0.06591712  0.77105258    -0.02900
Br1959     Br  0.49666827  0.09745633  0.80062929    -0.01500
Br1960     Br  0.52459392  0.09876361  0.75433465    -0.01500
Br1961     Br  0.45889517  0.06600403  0.72173452    -0.01500
Br1962     Br  0.48332008  0.11473910  0.70640549    -0.01500
C1963       C  0.45539497  0.88528511  0.64550385    -0.02600
C1964       C  0.44789464  0.89775219  0.62067912     0.07100
C1965       C  0.45034732  0.92879391  0.61690386    -0.02700
C1966       C  0.46103988  0.94409514  0.63472335    -0.02700
C1967       C  0.46514299  0.93272025  0.66434177     0.07200
C1968       C  0.45886339  0.90415235  0.66987327    -0.02900
Br1969     Br  0.44226378  0.90357641  0.69639108    -0.01500
Br1970     Br  0.46707868  0.84939186  0.64163097    -0.01500
Br1971     Br  0.46976375  0.97602174  0.61153547    -0.01500
Br1972     Br  0.43909704  0.95157650  0.58808300    -0.01500
C1973       C  0.45146136  0.98771490  0.71874619    -0.02600
C1974       C  0.46124863  0.96154825  0.71626987     0.07100
C1975       C  0.46279707  0.95328023  0.74595327    -0.02700
C1976       C  0.47032597  0.97523922  0.76185181    -0.02700
C1977       C  0.46439157  0.00384002  0.76674719     0.07200
C1978       C  0.45218067  0.00747235  0.74592433    -0.02900
Br1979     Br  0.43450449  0.02746312  0.75995651    -0.01500
Br1980     Br  0.43247744  0.98305008  0.69957267    -0.01500
Br1981     Br  0.48817276  0.98225401  0.74698092    -0.01500
Br1982     Br  0.44554444  0.93716945  0.76558952    -0.01500
C1983       C  0.49478047  0.97760957  0.65600408    -0.02600
C1984       C  0.48208905  0.97912473  0.67607878     0.07100
C1985       C  0.47649383  0.00973518  0.67613999    -0.02700
C1986       C  0.48668518  0.03385469  0.67182777    -0.02700
C1987       C  0.50195991  0.02813458  0.67241473     0.07200
C1988       C  0.50385825  0.00386910  0.65183254    -0.02900
Br1989     Br  0.50863110  0.01364235  0.61104620    -0.01500
Br1990     Br  0.50038418  0.94304856  0.63271471    -0.01500
Br1991     Br  0.48145985  0.06772256  0.64691278    -0.01500
Br1992     Br  0.45678615  0.01933390  0.66204205    -0.01500
C1993       C  0.49546159  0.95394589  0.81518137    -0.02600
C1994       C  0.50951291  0.96373103  0.80581759     0.07100
C1995       C  0.51151773  0.99172780  0.82056124    -0.02700
C1996       C  0.49996471  0.01442735  0.81878972    -0.02700
C1997       C  0.48563905  0.00639524  0.80763282     0.07200
C1998       C  0.48325597  0.97492528  0.81513074    -0.02900
Br1999     Br  0.46423633  0.95924155  0.82709854    -0.01500
Br2000     Br  0.49636868  0.92977506  0.85080771    -0.01500
Br2001     Br  0.50178745  0.04717874  0.84675245    -0.01500
Br2002     Br  0.52350355  0.99129423  0.85606652    -0.01500
C2003       C  0.54053580  0.98548706  0.74231511    -0.02600
C2004       C  0.52769844  0.97780152  0.76222450     0.07100
C2005       C  0.51897834  0.00310153  0.76173393    -0.02700
C2006       C  0.51465944  0.00943096  0.73243345    -0.02700
C2007       C  0.52392943  0.02465684  0.71550195     0.07200
C2008       C  0.53923509  0.01315602  0.72243083    -0.02900
Br2009     Br  0.55672980  0.03324997  0.70924085    -0.01500
Br2010     Br  0.55783068  0.96036620  0.73898451    -0.01500
Br2011     Br  0.51465150  0.97699886  0.70471979    -0.01500
Br2012     Br  0.52849500  0.03494673  0.78502717    -0.01500
C2013       C  0.49538929  0.91570476  0.76166611    -0.02600
C2014       C  0.50992227  0.92799251  0.75585387     0.07100
C2015       C  0.51308011  0.91880046  0.72522887    -0.02700
C2016       C  0.50124264  0.91796621  0.70223506    -0.02700
C2017       C  0.48629473  0.92712969  0.70932518     0.07200
C2018       C  0.48428213  0.91346786  0.73803698    -0.02900
Br2019     Br  0.47005599  0.88168432  0.73970699    -0.01500
Br2020     Br  0.49315718  0.88729860  0.79350304    -0.01500
Br2021     Br  0.50293207  0.88500971  0.67448614    -0.01500
Br2022     Br  0.53296517  0.91029019  0.71219200    -0.01500
C2023       C  0.47786542  0.05701528  0.13588136    -0.02600
C2024       C  0.47720154  0.06087136  0.16778240     0.07100
C2025       C  0.46503047  0.07956471  0.17680844    -0.02700
C2026       C  0.45272211  0.08569733  0.15785508    -0.02700
C2027       C  0.45284859  0.07847881  0.12673872     0.07200
C2028       C  0.46547205  0.06184572  0.11701189    -0.02900
Br2029     Br  0.46557782  0.03855611  0.08044807    -0.01500
Br2030     Br  0.49630197  0.05536282  0.11416216    -0.01500
Br2031     Br  0.43544440  0.10210562  0.17763544    -0.01500
Br2032     Br  0.46767230  0.11043549  0.20613506    -0.01500
C2033       C  0.42490614  0.11979892  0.97189770    -0.02600
C2034       C  0.42582807  0.09247613  0.95557390     0.07100
C2035       C  0.43009762  0.06639123  0.97148031    -0.02700
C2036       C  0.43272901  0.06735148  0.00272381    -0.02700
C2037       C  0.43080050  0.09421576  0.01920708     0.07200
C2038       C  0.42742697  0.12062533  0.00322234    -0.02900
Br2039     Br  0.42740498  0.15860340  0.02384276    -0.01500
Br2040     Br  0.42089562  0.15682554  0.95151906    -0.01500
Br2041     Br  0.43834946  0.03108723  0.02316949    -0.01500
Br2042     Br  0.43127925  0.02826362  0.95144271    -0.01500
C2043       C  0.44449070  0.03959538  0.85157173    -0.02600
C2044       C  0.43706152  0.06659571  0.84510149     0.07100
C2045       C  0.44119661  0.08015654  0.81794189    -0.02700
C2046       C  0.45452534  0.07192289  0.80287836    -0.02700
C2047       C  0.46302787  0.04555463  0.81060376     0.07200
C2048       C  0.45812458  0.03203695  0.83803218    -0.02900
Br2049     Br  0.47130577  0.01745590  0.86874678    -0.01500
Br2050     Br  0.43575129  0.01040411  0.87761923    -0.01500
Br2051     Br  0.46227574  0.10534100  0.78134213    -0.01500
Br2052     Br  0.42662465  0.10146749  0.79438084    -0.01500
C2053       C  0.54970351  0.92359419  0.12857008    -0.02600
C2054       C  0.55073057  0.89241534  0.12347133     0.07100
C2055       C  0.54107008  0.87521377  0.14167425    -0.02700
C2056       C  0.53324724  0.88847958  0.16681308    -0.02700
C2057       C  0.53503269  0.91975220  0.17471539     0.07200
C2058       C  0.54624734  0.93384127  0.15751336    -0.02900
Br2059     Br  0.56519898  0.93664655  0.17649254    -0.01500
Br2060     Br  0.55716843  0.95216049  0.10028326    -0.01500
Br2061     Br  0.52261733  0.86062625  0.19103789    -0.01500
Br2062     Br  0.53538218  0.83588319  0.12779065    -0.01500
C2063       C  0.57989081  0.77867015  0.08785330    -0.02600
C2064       C  0.58740353  0.80568867  0.09488078     0.07100
C2065       C  0.60171750  0.80292707  0.10717493    -0.02700
C2066       C  0.60852105  0.77475994  0.11033439    -0.02700
C2067       C  0.60259227  0.74926413  0.09687297     0.07200
C2068       C  0.58763541  0.75063256  0.08800310    -0.02900
Br2069     Br  0.57756394  0.71381870  0.07930958    -0.01500
Br2070     Br  0.55922607  0.77989914  0.07748418    -0.01500
Br2071     Br  0.62416567  0.76981350  0.13858642    -0.01500
Br2072     Br  0.61261933  0.83664208  0.12059172    -0.01500
C2073       C  0.61287290  0.90774812  0.06452879    -0.02600
C2074       C  0.60487819  0.90172437  0.09084543     0.07100
C2075       C  0.61204050  0.90740280  0.11870715    -0.02700
C2076       C  0.62740771  0.91361159  0.11968609    -0.02700
C2077       C  0.63582838  0.91465556  0.09304382     0.07200
C2078       C  0.62811577  0.91412677  0.06550566    -0.02900
Br2079     Br  0.63809276  0.92280701  0.02837816    -0.01500
Br2080     Br  0.60289012  0.90928623  0.02674694    -0.01500
Br2081     Br  0.63680606  0.91891187  0.15808970    -0.01500
Br2082     Br  0.60190851  0.90270988  0.15652558    -0.01500
C2083       C  0.57591646  0.84728206  0.96679398    -0.02600
C2084       C  0.57179459  0.87362260  0.95111237     0.07100
C2085       C  0.56786251  0.89913268  0.96875751    -0.02700
C2086       C  0.56755553  0.89793319  0.00059962    -0.02700
C2087       C  0.57131657  0.87125214  0.01615076     0.07200
C2088       C  0.57551625  0.84606150  0.99854268    -0.02900
Br2089     Br  0.58034209  0.80873924  0.01748086    -0.01500
Br2090     Br  0.58231659  0.81196528  0.94547919    -0.01500
Br2091     Br  0.56347387  0.93437898  0.02266084    -0.01500
Br2092     Br  0.56483283  0.93741627  0.94984427    -0.01500
C2093       C  0.55127519  0.93465402  0.84195600    -0.02600
C2094       C  0.55221350  0.90346486  0.84540017     0.07100
C2095       C  0.54211233  0.88668463  0.82786494    -0.02700
C2096       C  0.53392648  0.89977162  0.80374013    -0.02700
C2097       C  0.53346832  0.93162691  0.79862487     0.07200
C2098       C  0.54380929  0.94784897  0.81737685    -0.02900
Br2099     Br  0.55224252  0.98620534  0.80843307    -0.01500
Br2100     Br  0.55861520  0.96052753  0.87362780    -0.01500
Br2101     Br  0.52742947  0.87086300  0.77473074    -0.01500
Br2102     Br  0.53616446  0.84752604  0.84140239    -0.01500
C2103       C  0.58069592  0.78766309  0.87285488    -0.02600
C2104       C  0.58756764  0.81501477  0.86576043     0.07100
C2105       C  0.60129145  0.81389117  0.85103777    -0.02700
C2106       C  0.60968367  0.78732005  0.85041364    -0.02700
C2107       C  0.60390662  0.76090577  0.86246189     0.07200
C2108       C  0.58875364  0.76038494  0.87013511    -0.02900
Br2109     Br  0.57887226  0.72258919  0.87445733    -0.01500
Br2110     Br  0.56033174  0.78750177  0.88563008    -0.01500
Br2111     Br  0.62843194  0.78672765  0.83018150    -0.01500
Br2112     Br  0.60751587  0.84687049  0.82735821    -0.01500
C2113       C  0.61498825  0.90552160  0.90871331    -0.02600
C2114       C  0.60712249  0.90543727  0.88147437     0.07100
C2115       C  0.61529496  0.91220506  0.85515140    -0.02700
C2116       C  0.63103386  0.91180223  0.85542354    -0.02700
C2117       C  0.63893919  0.90828305  0.88250034     0.07200
C2118       C  0.63060460  0.90683832  0.90936443    -0.02900
Br2119     Br  0.64018779  0.90679354  0.94798007    -0.01500
Br2120     Br  0.60435397  0.90726049  0.94591184    -0.01500
Br2121     Br  0.64145570  0.91317856  0.81774584    -0.01500
Br2122     Br  0.60560199  0.92236105  0.81806056    -0.01500
C2123       C  0.56191444  0.07552345  0.32054002    -0.02600
C2124       C  0.55777655  0.08427090  0.34942547     0.07100
C2125       C  0.54284449  0.08046491  0.35658411    -0.02700
C2126       C  0.53401131  0.05951591  0.34086622    -0.02700
C2127       C  0.53873061  0.04610386  0.31242541     0.07200
C2128       C  0.55400021  0.05324502  0.30502813    -0.02900
Br2129     Br  0.56855753  0.02671916  0.28650146    -0.01500
Br2130     Br  0.57853173  0.09448207  0.30129823    -0.01500
Br2131     Br  0.51938537  0.04456694  0.36862624    -0.01500
Br2132     Br  0.53314499  0.10994590  0.38210105    -0.01500
C2133       C  0.58627821  0.19285667  0.38231035    -0.02600
C2134       C  0.59401510  0.16513842  0.37920133     0.07100
C2135       C  0.60868106  0.16580503  0.36842456    -0.02700
C2136       C  0.61593632  0.19310811  0.36431047    -0.02700
C2137       C  0.60915271  0.22022595  0.37262323     0.07200
C2138       C  0.59385654  0.22034721  0.37879754    -0.02900
Br2139     Br  0.58336388  0.25810524  0.38130874    -0.01500
Br2140     Br  0.56551056  0.19350260  0.39226288    -0.01500
Br2141     Br  0.63427614  0.19379350  0.34279908    -0.01500
Br2142     Br  0.61896657  0.13002091  0.35692535    -0.01500
C2143       C  0.61709230  0.06463909  0.42031817    -0.02600
C2144       C  0.61023874  0.06780356  0.39217910     0.07100
C2145       C  0.61886833  0.05979141  0.36656742    -0.02700
C2146       C  0.63447660  0.05615598  0.36887113    -0.02700
C2147       C  0.64153244  0.05915269  0.39685234     0.07200
C2148       C  0.63249059  0.06000772  0.42263585    -0.02900
Br2149     Br  0.64099362  0.05362454  0.46161950    -0.01500
Br2150     Br  0.60549248  0.06454940  0.45624513    -0.01500
Br2151     Br  0.64602668  0.04839368  0.33327971    -0.01500
Br2152     Br  0.61017878  0.05656504  0.32746377    -0.01500
C2153       C  0.57610155  0.13022437  0.50709178    -0.02600
C2154       C  0.57083682  0.10497247  0.52268459     0.07100
C2155       C  0.56730979  0.07916629  0.50540763    -0.02700
C2156       C  0.56931109  0.07867641  0.47389676    -0.02700
C2157       C  0.57456540  0.10423937  0.45856225     0.07200
C2158       C  0.57794793  0.12987511  0.47570978    -0.02900
Br2159     Br  0.58469385  0.16559288  0.45643985    -0.01500
Br2160     Br  0.58009141  0.16675831  0.52785495    -0.01500
Br2161     Br  0.56637478  0.04139131  0.45244113    -0.01500
Br2162     Br  0.56090470  0.04298934  0.52448680    -0.01500
C2163       C  0.52662545  0.09226924  0.66334087    -0.02600
C2164       C  0.52571365  0.06079416  0.66989071     0.07100
C2165       C  0.53496094  0.04178284  0.65084617    -0.02700
C2166       C  0.54392702  0.05366451  0.62786422    -0.02700
C2167       C  0.54602644  0.08471285  0.62497808     0.07200
C2168       C  0.53571079  0.10333075  0.63992174    -0.02900
Br2169     Br  0.53077593  0.14177967  0.62252235    -0.01500
Br2170     Br  0.51715582  0.12335806  0.68595532    -0.01500
Br2171     Br  0.55216397  0.02671791  0.59772652    -0.01500
Br2172     Br  0.53771576  0.99864046  0.65473707    -0.01500
C2173       C  0.57683518  0.19588200  0.59412772    -0.02600
C2174       C  0.58380479  0.16881018  0.60299149     0.07100
C2175       C  0.59820208  0.17040836  0.61432951    -0.02700
C2176       C  0.60650921  0.19667231  0.61178036    -0.02700
C2177       C  0.60037426  0.22292572  0.59937028     0.07200
C2178       C  0.58507947  0.22283312  0.59229886    -0.02900
Br2179     Br  0.57545013  0.25911727  0.57905598    -0.01500
Br2180     Br  0.55615797  0.19597714  0.58372525    -0.01500
Br2181     Br  0.62592079  0.19625867  0.62809794    -0.01500
Br2182     Br  0.60581736  0.13837968  0.63803490    -0.01500
C2183       C  0.60952603  0.06693370  0.57503301    -0.02600
C2184       C  0.60108971  0.07238404  0.60087934     0.07100
C2185       C  0.60816086  0.06852924  0.62897743    -0.02700
C2186       C  0.62384107  0.06786188  0.63054677    -0.02700
C2187       C  0.63233374  0.06967714  0.60407855     0.07200
C2188       C  0.62501465  0.06586404  0.57645366    -0.02900
Br2189     Br  0.63593547  0.05917344  0.53996446    -0.01500
Br2190     Br  0.59984926  0.05896409  0.53775412    -0.01500
Br2191     Br  0.63336251  0.06685554  0.66905482    -0.01500
Br2192     Br  0.59700452  0.06725423  0.66581372    -0.01500
C2193       C  0.10611524  0.28014823  0.60959368    -0.02600
C2194       C  0.09993809  0.25405278  0.59740995     0.07100
C2195       C  0.08497963  0.25581894  0.58832655    -0.02700
C2196       C  0.07760073  0.28423979  0.58592728    -0.02700
C2197       C  0.08509511  0.31126914  0.59295513     0.07200
C2198       C  0.09906512  0.30833669  0.60673015    -0.02900
Br2199     Br  0.10836755  0.34216683  0.62454128    -0.01500
Br2200     Br  0.12288869  0.27647369  0.63525125    -0.01500
Br2201     Br  0.05736068  0.28596578  0.57272089    -0.01500
Br2202     Br  0.07429853  0.21914418  0.58247854    -0.01500
C2203       C  0.08000501  0.28200000  0.37031424    -0.02600
C2204       C  0.08740409  0.30923307  0.36418249     0.07100
C2205       C  0.10154847  0.30714654  0.35091644    -0.02700
C2206       C  0.10886987  0.27923158  0.34774073    -0.02700
C2207       C  0.10256262  0.25279866  0.35872686     0.07200
C2208       C  0.08760165  0.25398147  0.36767079    -0.02900
Br2209     Br  0.07741574  0.21692801  0.37422498    -0.01500
Br2210     Br  0.05959005  0.28286579  0.38284827    -0.01500
Br2211     Br  0.12693805  0.27669317  0.32534823    -0.01500
Br2212     Br  0.11074026  0.34190701  0.33481187    -0.01500
C2213       C  0.13308318  0.19168535  0.46423664    -0.02600
C2214       C  0.12096850  0.20304111  0.44791475     0.07100
C2215       C  0.10885645  0.21505536  0.46408322    -0.02700
C2216       C  0.10864969  0.21446488  0.49576087    -0.02700
C2217       C  0.12038977  0.20121235  0.51200426     0.07200
C2218       C  0.13255809  0.18964339  0.49556398    -0.02900
Br2219     Br  0.14961925  0.17369097  0.51529895    -0.01500
Br2220     Br  0.15164864  0.18385265  0.44457135    -0.01500
Br2221     Br  0.09200054  0.23142490  0.51641739    -0.01500
Br2222     Br  0.09259624  0.23294078  0.44314136    -0.01500
C2223       C  0.12404000  0.11310618  0.65339573    -0.02600
C2224       C  0.13926968  0.10387080  0.65337980     0.07100
C2225       C  0.14885131  0.12070437  0.63542752    -0.02700
C2226       C  0.14330522  0.13897726  0.61277442    -0.02700
C2227       C  0.12851223  0.15039904  0.61340560     0.07200
C2228       C  0.11871503  0.13552488  0.63318658    -0.02900
Br2229     Br  0.09759827  0.14067511  0.62910087    -0.01500
Br2230     Br  0.11080688  0.10157569  0.68508150    -0.01500
Br2231     Br  0.15653292  0.14415755  0.57971101    -0.01500
Br2232     Br  0.16979705  0.12368304  0.64429237    -0.01500
C2233       C  0.13453228  0.95155245  0.72409116    -0.02600
C2234       C  0.13288915  0.95872570  0.75457530     0.07100
C2235       C  0.12650841  0.98674861  0.76157894    -0.02700
C2236       C  0.12782384  0.01055935  0.74112146    -0.02700
C2237       C  0.13421964  0.00501031  0.71282501     0.07200
C2238       C  0.13524167  0.97498228  0.70303228    -0.02900
Br2239     Br  0.13782455  0.96621166  0.66147869    -0.01500
Br2240     Br  0.13658830  0.91030202  0.71174359    -0.01500
Br2241     Br  0.12243132  0.05070812  0.75307214    -0.01500
Br2242     Br  0.11383999  0.99045999  0.79578316    -0.01500
C2243       C  0.09254742  0.69716639  0.10056731    -0.02600
C2244       C  0.10681078  0.69851833  0.08704219     0.07100
C2245       C  0.11288031  0.67065313  0.07672686    -0.02700
C2246       C  0.10709154  0.64379621  0.08673975    -0.02700
C2247       C  0.09233181  0.64160237  0.09614971     0.07200
C2248       C  0.08497082  0.66921282  0.10315755    -0.02900
Br2249     Br  0.06453285  0.67000005  0.11529871    -0.01500
Br2250     Br  0.08225953  0.73378397  0.11138166    -0.01500
Br2251     Br  0.12126919  0.61250123  0.09276199    -0.01500
Br2252     Br  0.12677688  0.66391664  0.04429288    -0.01500
C2253       C  0.08794233  0.70739566  0.88077814    -0.02600
C2254       C  0.10336045  0.71004307  0.87632071     0.07100
C2255       C  0.11159275  0.68404584  0.86898764    -0.02700
C2256       C  0.10497447  0.65570929  0.86928847    -0.02700
C2257       C  0.09019060  0.65245995  0.87844325     0.07200
C2258       C  0.08140492  0.67868410  0.88225171    -0.02900
Br2259     Br  0.06037789  0.67554372  0.88879580    -0.01500
Br2260     Br  0.07569607  0.74291763  0.88419559    -0.01500
Br2261     Br  0.11561185  0.62239454  0.85218310    -0.01500
Br2262     Br  0.13156412  0.68696751  0.85493724    -0.01500
C2263       C  0.11390907  0.84671107  0.85783230    -0.02600
C2264       C  0.11851570  0.81744624  0.84926532     0.07100
C2265       C  0.12450518  0.81433756  0.82015016    -0.02700
C2266       C  0.12987718  0.83968051  0.80509036    -0.02700
C2267       C  0.13067751  0.86764874  0.82031796     0.07200
C2268       C  0.12049497  0.87184245  0.84423656    -0.02900
Br2269     Br  0.11402666  0.91159168  0.85616375    -0.01500
Br2270     Br  0.09585546  0.85257874  0.88042015    -0.01500
Br2271     Br  0.13272437  0.83679317  0.76234921    -0.01500
Br2272     Br  0.12482969  0.77593829  0.80001524    -0.01500
C2273       C  0.12669116  0.79539731  0.97001361    -0.02600
C2274       C  0.11670336  0.77601791  0.95538196     0.07100
C2275       C  0.10730692  0.75800779  0.97255981    -0.02700
C2276       C  0.10856179  0.75770227  0.00380521    -0.02700
C2277       C  0.12007283  0.77342763  0.01809948     0.07200
C2278       C  0.12857959  0.79362486  0.00114532    -0.02900
Br2279     Br  0.14379122  0.81743285  0.01918595    -0.01500
Br2280     Br  0.13952309  0.82144946  0.94743602    -0.01500
Br2281     Br  0.09381527  0.73697639  0.02673326    -0.01500
Br2282     Br  0.09273373  0.73328347  0.95363063    -0.01500
C2283       C  0.14833418  0.14149127  0.34947999    -0.02600
C2284       C  0.13338687  0.15192980  0.34939410     0.07100
C2285       C  0.12293640  0.13119118  0.33807163    -0.02700
C2286       C  0.12757558  0.10462520  0.32226751    -0.02700
C2287       C  0.14287480  0.09923699  0.31531936     0.07200
C2288       C  0.15314911  0.11808853  0.33044753    -0.02900
Br2289     Br  0.17447378  0.11180646  0.32806386    -0.01500
Br2290     Br  0.16198788  0.15203986  0.38100434    -0.01500
Br2291     Br  0.11286395  0.07413701  0.31659005    -0.01500
Br2292     Br  0.10232016  0.13616884  0.34883347    -0.01500
C2293       C  0.15550454  0.82567919  0.14351713    -0.02600
C2294       C  0.14669130  0.84307372  0.16316718     0.07100
C2295       C  0.13152446  0.83476109  0.16568231    -0.02700
C2296       C  0.12550185  0.81204063  0.14654501    -0.02700
C2297       C  0.13438173  0.79838760  0.12387499     0.07200
C2298       C  0.14903213  0.80945942  0.12071752    -0.02900
Br2299     Br  0.16106546  0.80532466  0.08493765    -0.01500
Br2300     Br  0.17666087  0.82026997  0.14845611    -0.01500
Br2301     Br  0.10473950  0.80327214  0.14932369    -0.01500
Br2302     Br  0.11947636  0.84967142  0.19812613    -0.01500
C2303       C  0.15554708  0.97484727  0.20804357    -0.02600
C2304       C  0.14873709  0.94796982  0.21753974     0.07100
C2305       C  0.13630883  0.95162623  0.23717190    -0.02700
C2306       C  0.13369464  0.98013083  0.25128610    -0.02700
C2307       C  0.14112149  0.00577401  0.24085501     0.07200
C2308       C  0.14870871  0.00218958  0.21410447    -0.02900
Br2309     Br  0.15115045  0.03483371  0.18752725    -0.01500
Br2310     Br  0.17630236  0.97974921  0.20187268    -0.01500
Br2311     Br  0.12112913  0.98372105  0.28577777    -0.01500
Br2312     Br  0.12448632  0.91804822  0.24874272    -0.01500
C2313       C  0.37160379  0.90514494  0.39631792    -0.02600
C2314       C  0.36383679  0.90290115  0.36906499     0.07100
C2315       C  0.37219998  0.90159432  0.34236997    -0.02700
C2316       C  0.38770383  0.89629669  0.34339039    -0.02700
C2317       C  0.39505537  0.89229525  0.37117151     0.07200
C2318       C  0.38698325  0.89944544  0.39741483    -0.02900
Br2319     Br  0.39685473  0.90363428  0.43510020    -0.01500
Br2320     Br  0.36126501  0.91737086  0.43234764    -0.01500
Br2321     Br  0.39826224  0.89385060  0.30612544    -0.01500
Br2322     Br  0.36251866  0.90526999  0.30411453    -0.01500
C2323       C  0.36865494  0.89020519  0.56940978    -0.02600
C2324       C  0.36171945  0.89299813  0.59789991     0.07100
C2325       C  0.37095904  0.89794506  0.62296985    -0.02700
C2326       C  0.38653049  0.89439870  0.62062822    -0.02700
C2327       C  0.39334584  0.88840954  0.59249940     0.07200
C2328       C  0.38426473  0.88925540  0.56686527    -0.02900
Br2329     Br  0.39312581  0.89184033  0.52774901    -0.01500
Br2330     Br  0.35730248  0.88708284  0.53289126    -0.01500
Br2331     Br  0.39788454  0.89635261  0.65713532    -0.01500
Br2332     Br  0.36252223  0.90919940  0.66123949    -0.01500
C2333       C  0.31910383  0.83572565  0.50472969    -0.02600
C2334       C  0.30824070  0.85271792  0.52006982     0.07100
C2335       C  0.29800654  0.87044677  0.50434714    -0.02700
C2336       C  0.29957071  0.87382413  0.47348088    -0.02700
C2337       C  0.31115751  0.85876360  0.45861869     0.07200
C2338       C  0.32058621  0.83886463  0.47386056    -0.02900
Br2339     Br  0.33651340  0.81828603  0.45297257    -0.01500
Br2340     Br  0.33293731  0.81037239  0.52600623    -0.01500
Br2341     Br  0.28605815  0.89919218  0.45160530    -0.01500
Br2342     Br  0.28175077  0.88941041  0.52502526    -0.01500
C2343       C  0.19384982  0.96907238  0.29604891    -0.02600
C2344       C  0.20206395  0.96712590  0.32238973     0.07100
C2345       C  0.19788807  0.98802703  0.34558810    -0.02700
C2346       C  0.18570920  0.00857629  0.34092808    -0.02700
C2347       C  0.17641886  0.00510782  0.31541504     0.07200
C2348       C  0.17980259  0.98086007  0.29702653    -0.02900
Br2349     Br  0.16471114  0.95701521  0.28110737    -0.01500
Br2350     Br  0.20366516  0.97664560  0.25884304    -0.01500
Br2351     Br  0.18228012  0.04037030  0.36947348    -0.01500
Br2352     Br  0.20916077  0.99270241  0.38165981    -0.01500
C2353       C  0.18602476  0.88134004  0.30040565    -0.02600
C2354       C  0.20055738  0.87024203  0.29695563     0.07100
C2355       C  0.20354752  0.85122207  0.27256585    -0.02700
C2356       C  0.19391904  0.85124205  0.24767591    -0.02700
C2357       C  0.18074926  0.86866036  0.24856446     0.07200
C2358       C  0.17588672  0.87894824  0.27668042    -0.02900
Br2359     Br  0.15509624  0.88430060  0.28377807    -0.01500
Br2360     Br  0.18037504  0.90062354  0.33726116    -0.01500
Br2361     Br  0.19847169  0.82629619  0.21386491    -0.01500
Br2362     Br  0.22046956  0.82479203  0.27461476    -0.01500
C2363       C  0.25622947  0.92690521  0.36522591    -0.02600
C2364       C  0.24632776  0.90237212  0.36207778     0.07100
C2365       C  0.25264254  0.87354372  0.36577953    -0.02700
C2366       C  0.26810411  0.86908807  0.36301018    -0.02700
C2367       C  0.27751849  0.89368404  0.35748895     0.07200
C2368       C  0.27148645  0.92280503  0.35990379    -0.02900
Br2369     Br  0.28376987  0.95746366  0.35382477    -0.01500
Br2370     Br  0.24940248  0.96634694  0.37685208    -0.01500
Br2371     Br  0.27627753  0.82945805  0.36953689    -0.01500
Br2372     Br  0.24088080  0.84208472  0.38252737    -0.01500
C2373       C  0.19341243  0.06528788  0.19030986    -0.02600
C2374       C  0.20598084  0.04976568  0.20127332     0.07100
C2375       C  0.20808198  0.04990120  0.23237963    -0.02700
C2376       C  0.19637925  0.05730790  0.25186896    -0.02700
C2377       C  0.18256545  0.06610140  0.24046658     0.07200
C2378       C  0.18188216  0.07428442  0.21017133    -0.02900
Br2379     Br  0.16652500  0.10149567  0.19747485    -0.01500
Br2380     Br  0.19255032  0.07636398  0.14903375    -0.01500
Br2381     Br  0.19986624  0.05904127  0.29413351    -0.01500
Br2382     Br  0.22738536  0.04511393  0.24848009    -0.01500
C2383       C  0.19991818  0.91597242  0.15025371    -0.02600
C2384       C  0.18501498  0.92388947  0.15576201     0.07100
C2385       C  0.17958179  0.94986441  0.14127412    -0.02700
C2386       C  0.18965944  0.97253848  0.13313152    -0.02700
C2387       C  0.20494926  0.96705660  0.13534897     0.07200
C2388       C  0.20943358  0.93705294  0.13716285    -0.02900
Br2389     Br  0.22389535  0.92386025  0.10839190    -0.01500
Br2390     Br  0.20686893  0.87590984  0.15657097    -0.01500
Br2391     Br  0.18280934  0.00948002  0.11651761    -0.01500
Br2392     Br  0.15867868  0.95524548  0.13447146    -0.01500
C2393       C  0.23659488  0.93919249  0.20686726    -0.02600
C2394       C  0.23866120  0.96994545  0.20962174     0.07100
C2395       C  0.24498872  0.98084161  0.23598402    -0.02700
C2396       C  0.24281158  0.96477738  0.26227648    -0.02700
C2397       C  0.23649292  0.93594502  0.26056894     0.07200
C2398       C  0.23492514  0.92210034  0.23254367    -0.02900
Br2399     Br  0.23167528  0.88002793  0.22876332    -0.01500
Br2400     Br  0.24253594  0.92011049  0.17053457    -0.01500
Br2401     Br  0.24733846  0.98382837  0.29971042    -0.01500
Br2402     Br  0.25929579  0.01266305  0.23474712    -0.01500
C2403       C  0.37588771  0.04089085  0.07628360    -0.02600
C2404       C  0.36911356  0.04300952  0.10471117     0.07100
C2405       C  0.37814651  0.04786337  0.12978309    -0.02700
C2406       C  0.39301915  0.05656757  0.12592059    -0.02700
C2407       C  0.39951472  0.05777772  0.09697184     0.07200
C2408       C  0.39097160  0.04787830  0.07251846    -0.02900
Br2409     Br  0.39960545  0.04449136  0.03340583    -0.01500
Br2410     Br  0.36444500  0.02836315  0.04210976    -0.01500
Br2411     Br  0.40320517  0.07077968  0.16064192    -0.01500
Br2412     Br  0.37007230  0.04420159  0.16958560    -0.01500
C2413       C  0.26105547  0.01470892  0.11665659    -0.02600
C2414       C  0.25025888  0.03607864  0.12644884     0.07100
C2415       C  0.25480901  0.06615445  0.12841825    -0.02700
C2416       C  0.27000611  0.07289029  0.13098967    -0.02700
C2417       C  0.28088943  0.04990217  0.12812045     0.07200
C2418       C  0.27624569  0.02119191  0.11875269    -0.02900
Br2419     Br  0.29050058  0.99038570  0.10785932    -0.01500
Br2420     Br  0.25536909  0.97498118  0.10406737    -0.01500
Br2421     Br  0.27556892  0.11375772  0.13909099    -0.01500
Br2422     Br  0.24096062  0.09792757  0.11942716    -0.01500
C2423       C  0.36230367  0.05663006  0.91793110    -0.02600
C2424       C  0.35393971  0.05846893  0.89121708     0.07100
C2425       C  0.36165679  0.05835788  0.86380864    -0.02700
C2426       C  0.37705355  0.06363202  0.86323580    -0.02700
C2427       C  0.38537469  0.06401770  0.89016457     0.07200
C2428       C  0.37793665  0.05795152  0.91713862    -0.02900
Br2429     Br  0.38915682  0.05192800  0.95316389    -0.01500
Br2430     Br  0.35250957  0.05206746  0.95595710    -0.01500
Br2431     Br  0.38578453  0.07474060  0.82552648    -0.01500
Br2432     Br  0.35134015  0.05132163  0.82676258    -0.01500
C2433       C  0.31192293  0.01664336  0.98125774    -0.02600
C2434       C  0.30213093  0.03951135  0.97194132     0.07100
C2435       C  0.29258409  0.05339555  0.99266526    -0.02700
C2436       C  0.29533878  0.04999194  0.02304152    -0.02700
C2437       C  0.30764470  0.03288672  0.03219117     0.07200
C2438       C  0.31478536  0.01343273  0.01189661    -0.02900
Br2439     Br  0.32956484  0.98542965  0.02562773    -0.01500
Br2440     Br  0.32262714  0.99251619  0.95248701    -0.01500
Br2441     Br  0.28345174  0.07177998  0.05181706    -0.01500
Br2442     Br  0.27689687  0.07974780  0.97932830    -0.01500
C2443       C  0.17717018  0.94709497  0.85868261    -0.02600
C2444       C  0.16453022  0.95753067  0.84309078     0.07100
C2445       C  0.16138238  0.98850624  0.84496258    -0.02700
C2446       C  0.17250637  0.00899484  0.85305293    -0.02700
C2447       C  0.18628151  0.99854279  0.86328056     0.07200
C2448       C  0.18752032  0.96791794  0.87032826    -0.02900
Br2449     Br  0.20253411  0.95579474  0.89820258    -0.01500
Br2450     Br  0.18042166  0.90482961  0.86416450    -0.01500
Br2451     Br  0.16913198  0.05151493  0.84977728    -0.01500
Br2452     Br  0.14143686  0.00236054  0.84209486    -0.01500
C2453       C  0.18917848  0.08849912  0.77891967    -0.02600
C2454       C  0.19437762  0.05878300  0.78577142     0.07100
C2455       C  0.18777035  0.03581387  0.76933443    -0.02700
C2456       C  0.17410646  0.04042065  0.75700293    -0.02700
C2457       C  0.17055337  0.06761624  0.74395827     0.07200
C2458       C  0.17854351  0.09280227  0.75522712    -0.02900
Br2459     Br  0.17555036  0.13236006  0.73949134    -0.01500
Br2460     Br  0.19580673  0.12317975  0.80055095    -0.01500
Br2461     Br  0.15873754  0.01838795  0.77447606    -0.01500
Br2462     Br  0.19889727  0.00390332  0.75132842    -0.01500
C2463       C  0.23938882  0.09162883  0.86841866    -0.02600
C2464       C  0.23415569  0.06225905  0.87356664     0.07100
C2465       C  0.24366844  0.04275327  0.88995496    -0.02700
C2466       C  0.25896087  0.04831355  0.89135204    -0.02700
C2467       C  0.26472043  0.07507189  0.87991824     0.07200
C2468       C  0.25471396  0.09777549  0.87094563    -0.02900
Br2469     Br  0.26203705  0.13703911  0.86160384    -0.01500
Br2470     Br  0.22565128  0.12467686  0.86493312    -0.01500
Br2471     Br  0.27205930  0.01882443  0.90878265    -0.01500
Br2472     Br  0.23636460  0.00607581  0.90702529    -0.01500
C2473       C  0.19277691  0.97752883  0.64001022    -0.02600
C2474       C  0.20418061  0.98108348  0.66124380     0.07100
C2475       C  0.20510773  0.00923522  0.67543077    -0.02700
C2476       C  0.19309257  0.02968779  0.67468707    -0.02700
C2477       C  0.17977840  0.02184453  0.66045005     0.07200
C2478       C  0.18027422  0.99722090  0.64043208    -0.02900
Br2479     Br  0.16443691  0.99166495  0.61256654    -0.01500
Br2480     Br  0.19511761  0.94798221  0.60871158    -0.01500
Br2481     Br  0.19557656  0.06977620  0.68976755    -0.01500
Br2482     Br  0.22357523  0.02181474  0.69154255    -0.01500
C2483       C  0.18254007  0.90924944  0.70371071    -0.02600
C2484       C  0.19540488  0.89278161  0.70793054     0.07100
C2485       C  0.19575579  0.87457933  0.73353364    -0.02700
C2486       C  0.18515986  0.87904553  0.75704502    -0.02700
C2487       C  0.17439736  0.90272702  0.75522964     0.07200
C2488       C  0.17415370  0.91865091  0.72808632    -0.02900
Br2489     Br  0.16851430  0.95918004  0.72495998    -0.01500
Br2490     Br  0.17572414  0.91726316  0.66432515    -0.01500
Br2491     Br  0.18721652  0.85563734  0.79277505    -0.01500
Br2492     Br  0.20873446  0.84017541  0.73296223    -0.01500
C2493       C  0.25525678  0.87863450  0.67113729    -0.02600
C2494       C  0.24655525  0.89895024  0.65375190     0.07100
C2495       C  0.25316380  0.91005456  0.62738837    -0.02700
C2496       C  0.26865118  0.90787004  0.62313499    -0.02700
C2497       C  0.27746990  0.88970738  0.64194118     0.07200
C2498       C  0.27055221  0.87477726  0.66569663    -0.02900
Br2499     Br  0.28242980  0.85176286  0.69336745    -0.01500
Br2500     Br  0.24675185  0.85694047  0.70410191    -0.01500
Br2501     Br  0.27752161  0.93064160  0.59151471    -0.01500
Br2502     Br  0.24129743  0.91970847  0.59297948    -0.01500
C2503       C  0.23859321  0.98016198  0.74818141    -0.02600
C2504       C  0.23137731  0.95269466  0.74503097     0.07100
C2505       C  0.22581275  0.93872505  0.77035904    -0.02700
C2506       C  0.22324601  0.95552639  0.79617025    -0.02700
C2507       C  0.22654349  0.98613431  0.79641797     0.07200
C2508       C  0.23539289  0.99804387  0.77325048    -0.02900
Br2509     Br  0.24188041  0.03911369  0.77352627    -0.01500
Br2510     Br  0.25401259  0.99111046  0.72059368    -0.01500
Br2511     Br  0.21589046  0.93615097  0.83092517    -0.01500
Br2512     Br  0.22479436  0.89607001  0.77139219    -0.01500
C2513       C  0.40287820  0.75932712  0.34642907    -0.02600
C2514       C  0.40623940  0.73992396  0.37033113     0.07100
C2515       C  0.41761937  0.74805387  0.39025399    -0.02700
C2516       C  0.42453325  0.77623469  0.38788410    -0.02700
C2517       C  0.41891494  0.79786450  0.36799923     0.07200
C2518       C  0.40888363  0.78849868  0.34581442    -0.02900
Br2519     Br  0.40282310  0.81597894  0.31536481    -0.01500
Br2520     Br  0.38875388  0.74749040  0.31645866    -0.01500
Br2521     Br  0.44179218  0.78514956  0.41152749    -0.01500
Br2522     Br  0.42332343  0.72119628  0.42162726    -0.01500
C2523       C  0.34326065  0.73995885  0.37574821    -0.02600
C2524       C  0.35866199  0.74521309  0.37943615     0.07100
C2525       C  0.36390455  0.77424930  0.37329300    -0.02700
C2526       C  0.35506882  0.79444906  0.35743967    -0.02700
C2527       C  0.33978464  0.79001701  0.35528940     0.07200
C2528       C  0.33386840  0.76262795  0.36458500    -0.02900
Br2529     Br  0.31276998  0.75663250  0.36208191    -0.01500
Br2530     Br  0.33428377  0.70395635  0.39037634    -0.01500
Br2531     Br  0.36402386  0.82946795  0.34092237    -0.01500
Br2532     Br  0.38040015  0.79156722  0.39387655    -0.01500
C2533       C  0.42081197  0.74834856  0.58195982    -0.02600
C2534       C  0.40933960  0.74078391  0.60183018     0.07100
C2535       C  0.40550878  0.76139417  0.62467728    -0.02700
C2536       C  0.41079578  0.79113626  0.62358790    -0.02700
C2537       C  0.42009004  0.80010085  0.59997393     0.07200
C2538       C  0.42668940  0.77756488  0.58212793    -0.02900
Br2539     Br  0.44437730  0.78636002  0.55976113    -0.01500
Br2540     Br  0.42837381  0.71884777  0.55441186    -0.01500
Br2541     Br  0.40522701  0.81935970  0.65418973    -0.01500
Br2542     Br  0.39197208  0.74977042  0.65572239    -0.01500
C2543       C  0.37595308  0.70931919  0.50230058    -0.02600
C2544       C  0.38713992  0.69300736  0.51742242     0.07100
C2545       C  0.39731173  0.67562958  0.50027184    -0.02700
C2546       C  0.39617592  0.67436098  0.46880519    -0.02700
C2547       C  0.38501970  0.69086238  0.45389483     0.07200
C2548       C  0.37483757  0.70797797  0.47100323    -0.02900
Br2549     Br  0.35816049  0.72761239  0.45239576    -0.01500
Br2550     Br  0.36112076  0.73242869  0.52348840    -0.01500
Br2551     Br  0.41009158  0.64986202  0.44640280    -0.01500
Br2552     Br  0.41329228  0.65410064  0.51939160    -0.01500
C2553       C  0.36546418  0.77213883  0.60251843    -0.02600
C2554       C  0.36110769  0.74241493  0.59606703     0.07100
C2555       C  0.34592953  0.73525217  0.60038011    -0.02700
C2556       C  0.33594706  0.75666034  0.61236588    -0.02700
C2557       C  0.34098939  0.78495419  0.62144120     0.07200
C2558       C  0.35613395  0.79113003  0.61914033    -0.02900
Br2559     Br  0.36442070  0.82590300  0.63800891    -0.01500
Br2560     Br  0.38099555  0.79198106  0.58120142    -0.01500
Br2561     Br  0.31527826  0.74725093  0.61724149    -0.01500
Br2562     Br  0.33785526  0.69840050  0.58520272    -0.01500
C2563       C  0.35353550  0.61666107  0.33523922    -0.02600
C2564       C  0.36099838  0.60338067  0.31073199     0.07100
C2565       C  0.37617256  0.61123847  0.30682616    -0.02700
C2566       C  0.38361501  0.62889268  0.32858163    -0.02700
C2567       C  0.37574791  0.64168574  0.35297837     0.07200
C2568       C  0.36130737  0.63080049  0.35812920    -0.02900
Br2569     Br  0.35144200  0.63493193  0.39627773    -0.01500
Br2570     Br  0.33269807  0.62561478  0.33364893    -0.01500
Br2571     Br  0.40493443  0.62838281  0.32831377    -0.01500
Br2572     Br  0.38625099  0.60542817  0.26912379    -0.01500
C2573       C  0.35869277  0.48564573  0.25277215    -0.02600
C2574       C  0.35948400  0.51349440  0.23832113     0.07100
C2575       C  0.36454668  0.51355379  0.20856614    -0.02700
C2576       C  0.36421976  0.48674064  0.19165901    -0.02700
C2577       C  0.35761246  0.46133958  0.20398262     0.07200
C2578       C  0.35728760  0.45934998  0.23531317    -0.02900
Br2579     Br  0.35438311  0.42136238  0.25393790    -0.01500
Br2580     Br  0.35832015  0.48392905  0.29571771    -0.01500
Br2581     Br  0.37613725  0.48188490  0.15637909    -0.01500
Br2582     Br  0.37377413  0.54853665  0.19292276    -0.01500
C2583       C  0.35775891  0.60902036  0.62428962    -0.02600
C2584       C  0.36450441  0.59313509  0.64807855     0.07100
C2585       C  0.37895385  0.60252877  0.65647902    -0.02700
C2586       C  0.38671832  0.62452444  0.63957045    -0.02700
C2587       C  0.37991246  0.63883840  0.61469474     0.07200
C2588       C  0.36609425  0.62692035  0.60529177    -0.02900
Br2589     Br  0.35747856  0.63436320  0.56633868    -0.01500
Br2590     Br  0.33639514  0.61382661  0.62092611    -0.01500
Br2591     Br  0.40726533  0.63052096  0.64878009    -0.01500
Br2592     Br  0.38720668  0.59087703  0.69440130    -0.01500
C2593       C  0.36344406  0.49613593  0.74214585    -0.02600
C2594       C  0.35451559  0.49813896  0.71635491     0.07100
C2595       C  0.34343591  0.47717511  0.71391654    -0.02700
C2596       C  0.33679926  0.46566382  0.73893135    -0.02700
C2597       C  0.34524409  0.46162426  0.76517802     0.07200
C2598       C  0.35921473  0.47669709  0.76604290    -0.02900
Br2599     Br  0.37172432  0.47477659  0.80071001    -0.01500
Br2600     Br  0.38210337  0.51653033  0.74290816    -0.01500
Br2601     Br  0.31564949  0.46630205  0.73545569    -0.01500
Br2602     Br  0.34053999  0.45696403  0.67737304    -0.01500
C2603       C  0.39739605  0.15643455  0.08115325    -0.02600
C2604       C  0.41189679  0.15559040  0.09276704     0.07100
C2605       C  0.41832899  0.18415720  0.09918147    -0.02700
C2606       C  0.40938914  0.21092935  0.09858831    -0.02700
C2607       C  0.39513681  0.21039123  0.08484885     0.07200
C2608       C  0.39153137  0.18317948  0.07079434    -0.02900
Br2609     Br  0.38553227  0.18234105  0.02957956    -0.01500
Br2610     Br  0.38339532  0.12443108  0.08345494    -0.01500
Br2611     Br  0.41800146  0.24734856  0.11344050    -0.01500
Br2612     Br  0.43937345  0.18847685  0.10493049    -0.01500
C2613       C  0.34850937  0.32259275  0.10694360    -0.02600
C2614       C  0.36309828  0.31094823  0.11319345     0.07100
C2615       C  0.37098407  0.32524706  0.13677218    -0.02700
C2616       C  0.36480123  0.35045342  0.15220338    -0.02700
C2617       C  0.35139046  0.36429222  0.14247619     0.07200
C2618       C  0.34266942  0.34756220  0.12240819    -0.02900
Br2619     Br  0.32146054  0.35431016  0.12023931    -0.01500
Br2620     Br  0.33487642  0.30404703  0.07868670    -0.01500
Br2621     Br  0.37252464  0.35898172  0.19170739    -0.01500
Br2622     Br  0.38965240  0.31007574  0.15127258    -0.01500
C2623       C  0.33340216  0.20115473  0.11168322    -0.02600
C2624       C  0.34872164  0.20461069  0.11581163     0.07100
C2625       C  0.35667412  0.18294702  0.13222925    -0.02700
C2626       C  0.35008731  0.15541897  0.13892551    -0.02700
C2627       C  0.33542723  0.15015333  0.13001656     0.07200
C2628       C  0.32676887  0.17382227  0.11873329    -0.02900
Br2629     Br  0.30594180  0.16800807  0.11167789    -0.01500
Br2630     Br  0.32145570  0.23325074  0.09610885    -0.01500
Br2631     Br  0.36162278  0.12419746  0.15751315    -0.01500
Br2632     Br  0.37628570  0.19116076  0.14664116    -0.01500
C2633       C  0.38612945  0.18981829  0.90937098    -0.02600
C2634       C  0.38843662  0.21350906  0.88932734     0.07100
C2635       C  0.39982130  0.20840587  0.86772179    -0.02700
C2636       C  0.40853435  0.18145441  0.86861431    -0.02700
C2637       C  0.40313300  0.15567072  0.88410296     0.07200
C2638       C  0.39035053  0.16083574  0.90164143    -0.02900
Br2639     Br  0.37479193  0.13239000  0.90667383    -0.01500
Br2640     Br  0.38015395  0.19528904  0.95015296    -0.01500
Br2641     Br  0.42798333  0.18327266  0.85096524    -0.01500
Br2642     Br  0.40337288  0.23562741  0.83535628    -0.01500
C2643       C  0.36436323  0.31799637  0.82960131    -0.02600
C2644       C  0.36514362  0.31767402  0.86119648     0.07100
C2645       C  0.36516661  0.34606381  0.87559294    -0.02700
C2646       C  0.35924207  0.37148827  0.86079457    -0.02700
C2647       C  0.35348214  0.36860291  0.83144412     0.07200
C2648       C  0.35879772  0.34354187  0.81477448    -0.02900
Br2649     Br  0.36045844  0.34496238  0.77198450    -0.01500
Br2650     Br  0.37079735  0.28354531  0.80636625    -0.01500
Br2651     Br  0.36181746  0.41066384  0.87853631    -0.01500
Br2652     Br  0.37677922  0.35205282  0.91120153    -0.01500
C2653       C  0.34999229  0.24061323  0.97376476    -0.02600
C2654       C  0.36065828  0.25686469  0.95761566     0.07100
C2655       C  0.37354365  0.26664278  0.97254833    -0.02700
C2656       C  0.37502857  0.26261980  0.00349435    -0.02700
C2657       C  0.36366259  0.24893563  0.02001799     0.07200
C2658       C  0.35158919  0.23641081  0.00479956    -0.02900
Br2659     Br  0.33737283  0.21309749  0.02630727    -0.01500
Br2660     Br  0.33309130  0.22416741  0.95380451    -0.01500
Br2661     Br  0.39311716  0.27452411  0.02305271    -0.01500
Br2662     Br  0.38995066  0.28313414  0.95059581    -0.01500
C2663       C  0.34515020  0.19196320  0.85279806    -0.02600
C2664       C  0.33990131  0.21805207  0.86717352     0.07100
C2665       C  0.32511883  0.21977806  0.87692762    -0.02700
C2666       C  0.31658452  0.19359161  0.87768237    -0.02700
C2667       C  0.32265315  0.16625337  0.86716629     0.07200
C2668       C  0.33649801  0.16607190  0.85256061    -0.02900
Br2669     Br  0.34455137  0.12988835  0.83506004    -0.01500
Br2670     Br  0.36433709  0.19156860  0.83392597    -0.01500
Br2671     Br  0.29683775  0.19486206  0.89397510    -0.01500
Br2672     Br  0.31687560  0.25761371  0.89025527    -0.01500
C2673       C  0.12544068  0.41732531  0.40299796    -0.02600
C2674       C  0.13449003  0.41562981  0.37705529     0.07100
C2675       C  0.12725277  0.41560885  0.34896805    -0.02700
C2676       C  0.11161142  0.41297293  0.34726454    -0.02700
C2677       C  0.10308964  0.40790900  0.37337365     0.07200
C2678       C  0.10997163  0.41383307  0.40094161    -0.02900
Br2679     Br  0.09801713  0.42127478  0.43565065    -0.01500
Br2680     Br  0.13373181  0.42485156  0.44207348    -0.01500
Br2681     Br  0.10236040  0.41627481  0.30883381    -0.01500
Br2682     Br  0.13845172  0.41738694  0.31224932    -0.01500
C2683       C  0.14906732  0.27596507  0.40959309    -0.02600
C2684       C  0.14955464  0.25667054  0.38423310     0.07100
C2685       C  0.15994222  0.26369760  0.36101586    -0.02700
C2686       C  0.16896009  0.28920840  0.36366785    -0.02700
C2687       C  0.16646228  0.31002933  0.38672647     0.07200
C2688       C  0.15636115  0.30348685  0.40954945    -0.02900
Br2689     Br  0.15120070  0.33323111  0.43976395    -0.01500
Br2690     Br  0.13994143  0.26503813  0.44654640    -0.01500
Br2691     Br  0.18503000  0.29579944  0.33591479    -0.01500
Br2692     Br  0.16157417  0.24238787  0.32326633    -0.01500
C2693       C  0.11120527  0.41177075  0.61385909    -0.02600
C2694       C  0.10415504  0.40591218  0.58600236     0.07100
C2695       C  0.11281843  0.40820708  0.55991227    -0.02700
C2696       C  0.12835085  0.41049254  0.56154089    -0.02700
C2697       C  0.13568637  0.41037146  0.58956737     0.07200
C2698       C  0.12688348  0.41269231  0.61571240    -0.02900
Br2699     Br  0.13598446  0.41416674  0.65472182    -0.01500
Br2700     Br  0.10003260  0.41575582  0.65056656    -0.01500
Br2701     Br  0.13923588  0.41384913  0.52445188    -0.01500
Br2702     Br  0.10341091  0.41047417  0.52143889    -0.01500
C2703       C  0.15851723  0.29632070  0.56145440    -0.02600
C2704       C  0.16558192  0.30415797  0.58839781     0.07100
C2705       C  0.16474915  0.28469127  0.61292235    -0.02700
C2706       C  0.15599529  0.25867276  0.61131256    -0.02700
C2707       C  0.14836088  0.25136930  0.58421266     0.07200
C2708       C  0.15107140  0.26909433  0.55896253    -0.02900
Br2709     Br  0.14654950  0.25474665  0.51977908    -0.01500
Br2710     Br  0.15718346  0.32398396  0.52837535    -0.01500
Br2711     Br  0.15432446  0.23578000  0.64789109    -0.01500
Br2712     Br  0.17547648  0.29392471  0.64915120    -0.01500
C2713       C  0.18105094  0.46064559  0.50765570    -0.02600
C2714       C  0.19234785  0.44403047  0.52159598     0.07100
C2715       C  0.20503640  0.43564300  0.50531045    -0.02700
C2716       C  0.20458942  0.43640998  0.47410579    -0.02700
C2717       C  0.19151818  0.44591585  0.45994380     0.07200
C2718       C  0.18060783  0.46149563  0.47634443    -0.02900
Br2719     Br  0.16391811  0.47900175  0.45608731    -0.01500
Br2720     Br  0.16506339  0.47748592  0.53097291    -0.01500
Br2721     Br  0.22068562  0.41994520  0.45069583    -0.01500
Br2722     Br  0.22187564  0.41880386  0.52580980    -0.01500
C2723       C  0.30024938  0.50760694  0.33296175    -0.02600
C2724       C  0.30079000  0.47827718  0.32132447     0.07100
C2725       C  0.31318657  0.47057864  0.30457907    -0.02700
C2726       C  0.32070075  0.49247076  0.28881813    -0.02700
C2727       C  0.32065322  0.52265778  0.29894851     0.07200
C2728       C  0.31063778  0.52937064  0.32307861    -0.02900
Br2729     Br  0.30899417  0.56858124  0.34043313    -0.01500
Br2730     Br  0.28554041  0.51746825  0.36273201    -0.01500
Br2731     Br  0.32465290  0.48018303  0.24895935    -0.01500
Br2732     Br  0.32006879  0.43004285  0.30371414    -0.01500
C2733       C  0.30164814  0.38635780  0.25973727    -0.02600
C2734       C  0.28889773  0.40378585  0.25452421     0.07100
C2735       C  0.28744333  0.41631514  0.22650101    -0.02700
C2736       C  0.29997846  0.42364714  0.21020929    -0.02700
C2737       C  0.31349649  0.40798360  0.21494348     0.07200
C2738       C  0.31367072  0.38696041  0.23904864    -0.02900
Br2739     Br  0.33048751  0.36128420  0.24670564    -0.01500
Br2740     Br  0.30222058  0.36159965  0.29477730    -0.01500
Br2741     Br  0.29797296  0.46075843  0.18988762    -0.01500
Br2742     Br  0.26821804  0.42082927  0.20953851    -0.01500
C2743       C  0.24805193  0.39290687  0.34724433    -0.02600
C2744       C  0.25172780  0.42317621  0.34214270     0.07100
C2745       C  0.24191290  0.44543438  0.35375792    -0.02700
C2746       C  0.22719064  0.43818029  0.36042074    -0.02700
C2747       C  0.22248310  0.40821615  0.35836291     0.07200
C2748       C  0.23333965  0.38536716  0.35470347    -0.02900
Br2749     Br  0.22828868  0.34379446  0.35976097    -0.01500
Br2750     Br  0.26348748  0.36300538  0.35121688    -0.01500
Br2751     Br  0.21374332  0.46950377  0.37375859    -0.01500
Br2752     Br  0.24825616  0.48634899  0.35947235    -0.01500
C2753       C  0.31488559  0.51223511  0.11610007    -0.02600
C2754       C  0.29965006  0.50742675  0.11845805     0.07100
C2755       C  0.29475114  0.47757008  0.11815934    -0.02700
C2756       C  0.30498335  0.45376685  0.12301552    -0.02700
C2757       C  0.32000547  0.46019840  0.12927631     0.07200
C2758       C  0.32504039  0.48897102  0.12213708    -0.02900
Br2759     Br  0.34569063  0.49622944  0.11849091    -0.01500
Br2760     Br  0.32155263  0.54963211  0.10102919    -0.01500
Br2761     Br  0.29777392  0.41355204  0.12560607    -0.01500
Br2762     Br  0.27408529  0.46956672  0.11266771    -0.01500
C2763       C  0.31658808  0.59887930  0.17305130    -0.02600
C2764       C  0.30192983  0.59420527  0.18205303     0.07100
C2765       C  0.29837227  0.60037999  0.21208854    -0.02700
C2766       C  0.30978521  0.60136885  0.23358736    -0.02700
C2767       C  0.32451240  0.59518478  0.22491799     0.07200
C2768       C  0.32804696  0.59795285  0.19442881    -0.02900
Br2769     Br  0.34812779  0.60394749  0.18249936    -0.01500
Br2770     Br  0.31991777  0.61555187  0.13433340    -0.01500
Br2771     Br  0.30509612  0.60897626  0.27467064    -0.01500
Br2772     Br  0.27803600  0.60420066  0.22424123    -0.01500
C2773       C  0.25870653  0.49860601  0.20405931    -0.02600
C2774       C  0.27148616  0.51730538  0.20251830     0.07100
C2775       C  0.27890838  0.52350691  0.22941164    -0.02700
C2776       C  0.27296167  0.51465870  0.25625190    -0.02700
C2777       C  0.26326277  0.49101755  0.25698997     0.07200
C2778       C  0.25482552  0.48503993  0.23144340    -0.02900
Br2779     Br  0.23758142  0.46011756  0.23475686    -0.01500
Br2780     Br  0.24753276  0.48750704  0.16906971    -0.01500
Br2781     Br  0.27559828  0.53890289  0.29100228    -0.01500
Br2782     Br  0.29903976  0.53416793  0.23215319    -0.01500
C2783       C  0.13392737  0.54074784  0.11181238    -0.02600
C2784       C  0.14077225  0.53843311  0.08349016     0.07100
C2785       C  0.13167740  0.53479913  0.05809507    -0.02700
C2786       C  0.11627164  0.53862348  0.06028234    -0.02700
C2787       C  0.10962547  0.54677154  0.08755911     0.07200
C2788       C  0.11842804  0.54572067  0.11391025    -0.02900
Br2789     Br  0.11027071  0.55726760  0.15227417    -0.01500
Br2790     Br  0.14569918  0.53952659  0.14767654    -0.01500
Br2791     Br  0.10429823  0.53267830  0.02555234    -0.01500
Br2792     Br  0.14015557  0.52496673  0.01963257    -0.01500
C2793       C  0.17093850  0.67321600  0.05472095    -0.02600
C2794       C  0.16834358  0.65094056  0.07633441     0.07100
C2795       C  0.15845151  0.65714441  0.10015055    -0.02700
C2796       C  0.15017812  0.68395659  0.10047715    -0.02700
C2797       C  0.15137900  0.70440849  0.07653316     0.07200
C2798       C  0.16242454  0.69982701  0.05483650    -0.02900
Br2799     Br  0.16653197  0.73111285  0.02675159    -0.01500
Br2800     Br  0.18690386  0.66846409  0.02635403    -0.01500
Br2801     Br  0.13736763  0.69203468  0.13432024    -0.01500
Br2802     Br  0.15550765  0.62890012  0.13225793    -0.01500
C2803       C  0.22880615  0.59060017  0.12634716    -0.02600
C2804       C  0.22633252  0.58237213  0.09639952     0.07100
C2805       C  0.23852642  0.58227987  0.07642611    -0.02700
C2806       C  0.25309252  0.58282650  0.08774594    -0.02700
C2807       C  0.25540681  0.58314448  0.11885649     0.07200
C2808       C  0.24336318  0.59292874  0.13701747    -0.02900
Br2809     Br  0.24659595  0.60911185  0.17651062    -0.01500
Br2810     Br  0.21234817  0.59985075  0.15254935    -0.01500
Br2811     Br  0.26952399  0.58921361  0.06103636    -0.01500
Br2812     Br  0.23567372  0.58177526  0.03381722    -0.01500
C2813       C  0.13374268  0.56893650  0.91571695    -0.02600
C2814       C  0.14214706  0.56722177  0.88882276     0.07100
C2815       C  0.13499811  0.55522349  0.86329359    -0.02700
C2816       C  0.11942494  0.55081551  0.86322870    -0.02700
C2817       C  0.11063414  0.55978288  0.88827210     0.07200
C2818       C  0.11830718  0.56424792  0.91530782    -0.02900
Br2819     Br  0.10792695  0.55980269  0.95247963    -0.01500
Br2820     Br  0.14272868  0.57742290  0.95406346    -0.01500
Br2821     Br  0.11114080  0.53028277  0.82940360    -0.01500
Br2822     Br  0.14627382  0.54423583  0.82804786    -0.01500
C2823       C  0.16295384  0.69387155  0.92036389    -0.02600
C2824       C  0.17058152  0.68447633  0.89435984     0.07100
C2825       C  0.17033631  0.70335965  0.86922053    -0.02700
C2826       C  0.16034116  0.72792571  0.86793547    -0.02700
C2827       C  0.15122233  0.73520529  0.89304811     0.07200
C2828       C  0.15431242  0.72026325  0.92008052    -0.02900
Br2829     Br  0.14780477  0.73677710  0.95752050    -0.01500
Br2830     Br  0.16263523  0.66947268  0.95585563    -0.01500
Br2831     Br  0.15851795  0.74787886  0.83004647    -0.01500
Br2832     Br  0.18361525  0.69528375  0.83614681    -0.01500
C2833       C  0.18436111  0.50976067  0.95312689    -0.02600
C2834       C  0.19633036  0.52792675  0.94481728     0.07100
C2835       C  0.20945500  0.52670508  0.96161164    -0.02700
C2836       C  0.20922638  0.51265915  0.98953427    -0.02700
C2837       C  0.19556455  0.50507789  0.00185150     0.07200
C2838       C  0.18424293  0.49755586  0.98195562    -0.02900
Br2839     Br  0.16802343  0.47434808  0.99624549    -0.01500
Br2840     Br  0.16771499  0.50448427  0.92693649    -0.01500
Br2841     Br  0.22657417  0.50842738  0.01368423    -0.01500
Br2842     Br  0.22710306  0.54545220  0.94738282    -0.01500
C2843       C  0.31373309  0.50537736  0.86163575    -0.02600
C2844       C  0.29847857  0.50509841  0.85700027     0.07100
C2845       C  0.29156062  0.47715830  0.85891487    -0.02700
C2846       C  0.29985673  0.45073848  0.85272884    -0.02700
C2847       C  0.31510988  0.45285663  0.84645371     0.07200
C2848       C  0.32226186  0.47972116  0.85448611    -0.02900
Br2849     Br  0.34339873  0.48157549  0.85647722    -0.01500
Br2850     Br  0.32120189  0.53579167  0.88803744    -0.01500
Br2851     Br  0.29076051  0.41218315  0.85457462    -0.01500
Br2852     Br  0.27184330  0.47572229  0.87514669    -0.01500
C2853       C  0.33269608  0.57009624  0.75907237    -0.02600
C2854       C  0.32770563  0.58048965  0.73147232     0.07100
C2855       C  0.31537967  0.60000196  0.73159405    -0.02700
C2856       C  0.30601073  0.60153070  0.75712523    -0.02700
C2857       C  0.30862710  0.58174461  0.78148682     0.07200
C2858       C  0.32305930  0.56974998  0.78363454    -0.02900
Br2859     Br  0.33061394  0.55708475  0.82104801    -0.01500
Br2860     Br  0.35343991  0.56310721  0.76470998    -0.01500
Br2861     Br  0.29044962  0.63141154  0.75798428    -0.01500
Br2862     Br  0.31224044  0.62619914  0.69821899    -0.01500
C2863       C  0.24594901  0.58801445  0.81240472    -0.02600
C2864       C  0.25756378  0.58287133  0.83319950     0.07100
C2865       C  0.25529369  0.59396551  0.86242881    -0.02700
C2866       C  0.24082588  0.60116312  0.87256620    -0.02700
C2867       C  0.22845132  0.59814486  0.85308257     0.07200
C2868       C  0.23136185  0.59356979  0.82238417    -0.02900
Br2869     Br  0.21567014  0.59622216  0.79320609    -0.01500
Br2870     Br  0.25007457  0.59236094  0.77032096    -0.01500
Br2871     Br  0.23862782  0.61507169  0.91328520    -0.01500
Br2872     Br  0.27215055  0.60388215  0.88695135    -0.01500
C2873       C  0.29173091  0.38025180  0.72511728    -0.02600
C2874       C  0.29836749  0.39132316  0.69892490     0.07100
C2875       C  0.31381349  0.39314408  0.69874334    -0.02700
C2876       C  0.32182873  0.39301810  0.72577848    -0.02700
C2877       C  0.31421832  0.39166808  0.75342264     0.07200
C2878       C  0.29938509  0.38206835  0.75268628    -0.02900
Br2879     Br  0.28998765  0.36917475  0.78872573    -0.01500
Br2880     Br  0.27438630  0.35567628  0.72189792    -0.01500
Br2881     Br  0.34305369  0.39344408  0.72425469    -0.01500
Br2882     Br  0.32366128  0.38972947  0.66098709    -0.01500
C2883       C  0.31606782  0.46960953  0.62004650    -0.02600
C2884       C  0.30120134  0.47473746  0.62801791     0.07100
C2885       C  0.29700249  0.50456666  0.63336190    -0.02700
C2886       C  0.30747878  0.52499953  0.64433467    -0.02700
C2887       C  0.32263508  0.51766770  0.64301026     0.07200
C2888       C  0.32671407  0.49226033  0.62546297    -0.02900
Br2889     Br  0.34654942  0.48780914  0.60990160    -0.01500
Br2890     Br  0.32111955  0.43364802  0.59853512    -0.01500
Br2891     Br  0.30118599  0.56434221  0.65632501    -0.01500
Br2892     Br  0.28123247  0.51979207  0.60912003    -0.01500
C2893       C  0.24334859  0.43500190  0.61995804    -0.02600
C2894       C  0.25378725  0.41221729  0.62761901     0.07100
C2895       C  0.24902147  0.38212949  0.62505074    -0.02700
C2896       C  0.23374513  0.37567624  0.62345767    -0.02700
C2897       C  0.22316102  0.39903282  0.62099497     0.07200
C2898       C  0.22817337  0.42859587  0.61766188    -0.02900
Br2899     Br  0.21434342  0.46058596  0.60843393    -0.01500
Br2900     Br  0.24952146  0.47537389  0.61182788    -0.01500
Br2901     Br  0.22735022  0.33459656  0.62519977    -0.01500
Br2902     Br  0.26285511  0.35050500  0.61468888    -0.01500
C2903       C  0.27236135  0.46013132  0.73904948    -0.02600
C2904       C  0.27446790  0.47295269  0.71101394     0.07100
C2905       C  0.27523765  0.50395635  0.70895193    -0.02700
C2906       C  0.27855471  0.52097177  0.73425887    -0.02700
C2907       C  0.27927542  0.50733056  0.76254766     0.07200
C2908       C  0.27487516  0.47721809  0.76487011    -0.02900
Br2909     Br  0.27013308  0.46017161  0.80246940    -0.01500
Br2910     Br  0.26199920  0.42302617  0.74179555    -0.01500
Br2911     Br  0.28017821  0.56318494  0.72947225    -0.01500
Br2912     Br  0.26611383  0.52304707  0.67552634    -0.01500
loop_ 
_geom_bond_atom_site_label_1 
_geom_bond_atom_site_label_2 
_geom_bond_distance 
_geom_bond_site_symmetry_2 
_ccdc_geom_bond_type 
C1            C2   1.541       .  S
C1            C7   1.562       .  S
C1            C5   1.556       .  S
C1         C2894   1.555       .  S
C2            H9   1.087       .  S
C2            C3   1.350       .  D
C3            C4   1.532       .  S
C3         C2904   1.469       .  S
C4            C8   1.544       .  S
C4            C6   1.543       .  S
C4           H10   1.103       .  S
C5           H11   1.085       .  S
C5            C6   1.371       .  D
C6         C2884   1.509       .  S
C7           H12   1.076       .  S
C7            C8   1.372       .  D
C8         C2874   1.512       .  S
C13          C14   1.537       .  S
C13          C19   1.546       .  S
C13          C17   1.550       .  S
C13        C2864   1.553       .  S
C14          H21   1.085       .  S
C14          C15   1.352       .  D
C15          C16   1.537       .  S
C15        C2907   1.480       .  S
C16          C20   1.556       .  S
C16          C18   1.559       .  S
C16          H22   1.111       .  S
C17          H23   1.084       .  S
C17          C18   1.370       .  D
C18        C2844   1.502       .  S
C19          H24   1.080       .  S
C19          C20   1.375       .  D
C20        C2857   1.523       .  S
In25         O27   2.226       .  S
In25         O28   2.214       .  S
In25         O36   2.225       .  S
In25         O30   2.262       .  S
In25         O32   2.277       .  S
In25         O33   2.239       .  S
In25         O34   2.212       .  S
In25         O37   2.231       .  S
C26          O32   1.275       .  A
C26          O34   1.261       .  A
C26        C2814   1.516       .  S
O27          C35   1.264       .  A
O28          C35   1.270       .  A
C29          O36   1.260       .  A
C29          O30   1.273       .  A
C29        C2867   1.506       .  S
C31          O33   1.268       .  A
C31          O37   1.267       .  A
C31        C2824   1.493       .  S
C35        C2834   1.464       .  S
In38         O40   2.211       .  S
In38         O41   2.229       .  S
In38         O49   2.218       .  S
In38         O43   2.244       .  S
In38         O45   2.285       .  S
In38         O46   2.196       .  S
In38         O47   2.189       .  S
In38         O50   2.256       .  S
C39          O45   1.274       .  A
C39          O47   1.260       .  A
C39        C2784   1.496       .  S
O40          C48   1.265       .  A
O41          C48   1.268       .  A
C42          O49   1.262       .  A
C42          O43   1.274       .  A
C42        C2804   1.487       .  S
C44          O46   1.267       .  A
C44          O50   1.264       .  A
C44        C2837   1.467       .  S
C48        C2794   1.482       .  S
C51          C52   1.541       .  S
C51          C57   1.536       .  S
C51          C55   1.560       .  S
C51        C2807   1.545       .  S
C52          H59   1.086       .  S
C52          C53   1.365       .  D
C53          C54   1.555       .  S
C53        C2764   1.501       .  S
C54          C58   1.550       .  S
C54          C56   1.538       .  S
C54          H60   1.103       .  S
C55          H61   1.082       .  S
C55          C56   1.369       .  D
C56        C2754   1.501       .  S
C57          H62   1.083       .  S
C57          C58   1.355       .  D
C58        C2774   1.501       .  S
C63          C64   1.563       .  S
C63          C69   1.546       .  S
C63          C67   1.557       .  S
C63        C2744   1.544       .  S
C64          H71   1.081       .  S
C64          C65   1.368       .  D
C65          C66   1.539       .  S
C65        C2734   1.497       .  S
C66          C70   1.536       .  S
C66          C68   1.537       .  S
C66          H72   1.111       .  S
C67          H73   1.085       .  S
C67          C68   1.371       .  D
C68        C2724   1.505       .  S
C69          H74   1.086       .  S
C69          C70   1.346       .  D
C70        C2777   1.479       .  S
In75         O77   2.242       .  S
In75         O78   2.190       .  S
In75         O86   2.215       .  S
In75         O80   2.265       .  S
In75         O82   2.283       .  S
In75         O83   2.201       .  S
In75         O84   2.200       .  S
In75         O87   2.230       .  S
C76          O82   1.275       .  A
C76          O84   1.260       .  A
C76        C2697   1.508       .  S
O77          C85   1.263       .  A
O78          C85   1.264       .  A
C79          O86   1.258       .  A
C79          O80   1.273       .  A
C79        C2897   1.487       .  S
C81          O83   1.264       .  A
C81          O87   1.268       .  A
C81        C2704   1.479       .  S
C85        C2714   1.461       .  S
In88         O90   2.226       .  S
In88         O91   2.203       .  S
In88         O99   2.226       .  S
In88         O93   2.256       .  S
In88         O95   2.290       .  S
In88         O96   2.186       .  S
In88         O97   2.220       .  S
In88        O100   2.246       .  S
C89          O95   1.272       .  A
C89          O97   1.259       .  A
C89        C2674   1.514       .  S
O90          C98   1.266       .  A
O91          C98   1.262       .  A
C92          O99   1.257       .  A
C92          O93   1.271       .  A
C92        C2747   1.486       .  S
C94          O96   1.262       .  A
C94         O100   1.263       .  A
C94        C2717   1.459       .  S
C98        C2687   1.471       .  S
C101        C102   1.561       .  S
C101        C107   1.548       .  S
C101        C105   1.540       .  S
C101       C2644   1.554       .  S
C102        H109   1.080       .  S
C102        C103   1.386       .  D
C103        C104   1.544       .  S
C103       C2634   1.530       .  S
C104        C108   1.537       .  S
C104        C106   1.528       .  S
C104        H110   1.104       .  S
C105        H111   1.086       .  S
C105        C106   1.350       .  D
C106       C2664   1.475       .  S
C107        H112   1.080       .  S
C107        C108   1.367       .  D
C108       C2654   1.494       .  S
C113        C114   1.531       .  S
C113        C119   1.529       .  S
C113        C117   1.579       .  S
C113       C2614   1.565       .  S
C114        H121   1.088       .  S
C114        C115   1.342       .  D
C115        C116   1.531       .  S
C115       C2624   1.481       .  S
C116        C120   1.538       .  S
C116        C118   1.552       .  S
C116        H122   1.100       .  S
C117        H123   1.062       .  S
C117        C118   1.400       .  D
C118       C2607   1.539       .  S
C119        H124   1.088       .  S
C119        C120   1.354       .  D
C120       C2657   1.489       .  S
C125        C126   1.540       .  S
C125        C131   1.552       .  S
C125        C129   1.570       .  S
C125       C2584   1.561       .  S
C126        H133   1.086       .  S
C126        C127   1.356       .  D
C127        C128   1.541       .  S
C127       C2854   1.498       .  S
C128        C132   1.544       .  S
C128        C130   1.553       .  S
C128        H134   1.110       .  S
C129        H135   1.082       .  S
C129        C130   1.384       .  D
C130       C2594   1.514       .  S
C131        H136   1.086       .  S
C131        C132   1.357       .  D
C132       C2887   1.507       .  S
C137        C138   1.551       .  S
C137        C143   1.549       .  S
C137        C141   1.553       .  S
C137       C2647   1.558       .  S
C138        H145   1.084       .  S
C138        C139   1.364       .  D
C139        C140   1.553       .  S
C139       C2877   1.510       .  S
C140        C144   1.534       .  S
C140        C142   1.547       .  S
C140        H146   1.093       .  S
C141        H147   1.083       .  S
C141        C142   1.382       .  D
C142       C2597   1.525       .  S
C143        H148   1.083       .  S
C143        C144   1.359       .  D
C144       C2847   1.497       .  S
C149        C150   1.562       .  S
C149        C155   1.541       .  S
C149        C153   1.545       .  S
C149       C2564   1.556       .  S
C150        H157   1.084       .  S
C150        C151   1.376       .  D
C151        C152   1.560       .  S
C151       C2727   1.537       .  S
C152        C156   1.545       .  S
C152        C154   1.552       .  S
C152        H158   1.099       .  S
C153        H159   1.083       .  S
C153        C154   1.362       .  D
C154       C2574   1.496       .  S
C155        H160   1.086       .  S
C155        C156   1.361       .  D
C156       C2767   1.501       .  S
C161        C162   1.555       .  S
C161        C167   1.545       .  S
C161        C165   1.545       .  S
C161       C2617   1.556       .  S
C162        H169   1.086       .  S
C162        C163   1.366       .  D
C163        C164   1.554       .  S
C163       C2757   1.510       .  S
C164        C168   1.553       .  S
C164        C166   1.551       .  S
C164        H170   1.101       .  S
C165        H171   1.082       .  S
C165        C166   1.359       .  D
C166       C2577   1.498       .  S
C167        H172   1.084       .  S
C167        C168   1.368       .  D
C168       C2737   1.522       .  S
C173        C174   1.565       .  S
C173        C179   1.538       .  S
C173        C177   1.541       .  S
C173       C2587   1.571       .  S
C174        H181   1.076       .  S
C174        C175   1.381       .  D
C175        C176   1.540       .  S
C175       C2534   1.499       .  S
C176        C180   1.538       .  S
C176        C178   1.549       .  S
C176        H182   1.100       .  S
C177        H183   1.086       .  S
C177        C178   1.362       .  D
C178       C2554   1.513       .  S
C179        H184   1.085       .  S
C179        C180   1.361       .  D
C180       C2544   1.505       .  S
C185        C186   1.541       .  S
C185        C191   1.538       .  S
C185        C189   1.560       .  S
C185       C2567   1.556       .  S
C186        H193   1.087       .  S
C186        C187   1.361       .  D
C187        C188   1.548       .  S
C187       C2524   1.507       .  S
C188        C192   1.538       .  S
C188        C190   1.540       .  S
C188        H194   1.101       .  S
C189        H195   1.079       .  S
C189        C190   1.377       .  D
C190       C2514   1.500       .  S
C191        H196   1.086       .  S
C191        C192   1.363       .  D
C192       C2547   1.499       .  S
C197        C198   1.566       .  S
C197        C203   1.532       .  S
C197        C201   1.570       .  S
C197       C2494   1.560       .  S
C198        H205   1.085       .  S
C198        C199   1.376       .  D
C199        C200   1.544       .  S
C199       C2484   1.512       .  S
C200        C204   1.538       .  S
C200        C202   1.544       .  S
C200        H206   1.107       .  S
C201        H207   1.075       .  S
C201        C202   1.373       .  D
C202       C2474   1.518       .  S
C203        H208   1.087       .  S
C203        C204   1.340       .  D
C204       C2504   1.467       .  S
C209        C210   1.573       .  S
C209        C215   1.531       .  S
C209        C213   1.561       .  S
C209       C2464   1.557       .  S
C210        H217   1.071       .  S
C210        C211   1.384       .  D
C211        C212   1.551       .  S
C211       C2454   1.531       .  S
C212        C216   1.529       .  S
C212        C214   1.523       .  S
C212        H218   1.103       .  S
C213        H219   1.085       .  S
C213        C214   1.372       .  D
C214       C2447   1.501   1_545  S
C215        H220   1.088       .  S
C215        C216   1.338       .  D
C216       C2507   1.468   1_545  S
In221       O223   2.224       .  S
In221       O224   2.211       .  S
In221       O232   2.232       .  S
In221       O226   2.261       .  S
In221       O228   2.278       .  S
In221       O229   2.179       .  S
In221       O230   2.224       .  S
In221       O233   2.217       .  S
C222        O228   1.276       .  A
C222        O230   1.263       .  A
C222       C2424   1.503       .  S
O223        C231   1.268       .  A
O224        C231   1.267       .  A
C225        O232   1.262       .  A
C225        O226   1.275       .  A
C225       C2467   1.489       .  S
C227        O229   1.269       .  A
C227        O233   1.265       .  A
C227       C2434   1.460       .  S
C231       C2667   1.473       .  S
In234       O236   2.237       .  S
In234       O237   2.170       .  S
In234       O245   2.206       .  S
In234       O239   2.268       .  S
In234       O241   2.280       .  S
In234       O242   2.178       .  S
In234       O243   2.198       .  S
In234       O246   2.247       .  S
C235        O241   1.275       .  A
C235        O243   1.259       .  A
C235       C2404   1.495       .  S
O236        C244   1.265       .  A
O237        C244   1.264       .  A
C238        O245   1.258       .  A
C238        O239   1.275       .  A
C238       C2417   1.493       .  S
C240        O242   1.262       .  A
C240        O246   1.269       .  A
C240       C2627   1.465       .  S
C244       C2437   1.457       .  S
C247        C248   1.531       .  S
C247        C253   1.563       .  S
C247        C251   1.557       .  S
C247       C2414   1.550       .  S
C248        H255   1.087       .  S
C248        C249   1.336   1_545  D
C249        C250   1.545       .  S
C249       C2394   1.471       .  S
C250        C254   1.549   1_565  S
C250        C252   1.546       .  S
C250        H256   1.108       .  S
C251        H257   1.085       .  S
C251        C252   1.373   1_545  D
C252       C2387   1.504       .  S
C253        H258   1.078       .  S
C253        C254   1.373       .  D
C254       C2374   1.512       .  S
C259        C260   1.535       .  S
C259        C265   1.562       .  S
C259        C263   1.558       .  S
C259       C2364   1.551       .  S
C260        H267   1.088       .  S
C260        C261   1.342       .  D
C261        C262   1.520       .  S
C261       C2397   1.465       .  S
C262        C266   1.525       .  S
C262        C264   1.550       .  S
C262        H268   1.101       .  S
C263        H269   1.070       .  S
C263        C264   1.379       .  D
C264       C2344   1.531       .  S
C265        H270   1.076       .  S
C265        C266   1.370       .  D
C266       C2354   1.489       .  S
In271       O273   2.256       .  S
In271       O274   2.211       .  S
In271       O282   2.243       .  S
In271       O276   2.285       .  S
In271       O278   2.281       .  S
In271       O279   2.217       .  S
In271       O280   2.249       .  S
In271       O283   2.214       .  S
C272        O278   1.267       .  A
C272        O280   1.256       .  A
C272       C2324   1.516       .  S
O273        C281   1.265       .  A
O274        C281   1.259       .  A
C275        O282   1.257       .  A
C275        O276   1.261       .  A
C275       C2497   1.497       .  S
C277        O279   1.260       .  A
C277        O283   1.263       .  A
C277       C2334   1.454       .  S
C281       C2557   1.477       .  S
In284       O286   2.222       .  S
In284       O287   2.196       .  S
In284       O295   2.236       .  S
In284       O289   2.255       .  S
In284       O291   2.296       .  S
In284       O292   2.196       .  S
In284       O293   2.224       .  S
In284       O296   2.258       .  S
C285        O291   1.268       .  A
C285        O293   1.256       .  A
C285       C2314   1.505       .  S
O286        C294   1.264       .  A
O287        C294   1.259       .  A
C288        O295   1.258       .  A
C288        O289   1.261       .  A
C288       C2367   1.490       .  S
C290        O292   1.256       .  A
C290        O296   1.267       .  A
C290       C2527   1.469       .  S
C294       C2337   1.448       .  S
C297        C298   1.536       .  S
C297        C303   1.549       .  S
C297        C301   1.558       .  S
C297       C2294   1.555       .  S
C298        H305   1.086       .  S
C298        C299   1.356       .  D
C299        C300   1.554       .  S
C299       C2357   1.505       .  S
C300        C304   1.555       .  S
C300        C302   1.558       .  S
C300        H306   1.104       .  S
C301        H307   1.082       .  S
C301        C302   1.384       .  D
C302       C2304   1.524       .  S
C303        H308   1.087       .  S
C303        C304   1.354       .  D
C304       C2384   1.504       .  S
C309        C310   1.560       .  S
C309        C315   1.560       .  S
C309        C313   1.566       .  S
C309       C2287   1.577       .  S
C310        H317   1.086       .  S
C310        C311   1.361       .  D
C311        C312   1.528       .  S
C311       C2377   1.502       .  S
C312        C316   1.545       .  S
C312        C314   1.544       .  S
C312        H318   1.103       .  S
C313        H319   1.077       .  S
C313        C314   1.374       .  D
C314       C2307   1.508       .  S
C315        H320   1.081       .  S
C315        C316   1.369       .  D
C316       C2347   1.525       .  S
C321        C322   1.549       .  S
C321        C327   1.538       .  S
C321        C325   1.547       .  S
C321       C2264   1.549       .  S
C322        H329   1.082       .  S
C322        C323   1.368       .  D
C323        C324   1.549       .  S
C323       C2827   1.519       .  S
C324        C328   1.545       .  S
C324        C326   1.540       .  S
C324        H330   1.109       .  S
C325        H331   1.085       .  S
C325        C326   1.368       .  D
C326       C2254   1.500       .  S
C327        H332   1.078       .  S
C327        C328   1.362       .  D
C328       C2274   1.488       .  S
C333        C334   1.577       .  S
C333        C339   1.529       .  S
C333        C337   1.534       .  S
C333       C2297   1.558       .  S
C334        H341   1.081       .  S
C334        C335   1.403       .  D
C335        C336   1.541       .  S
C335       C2244   1.535       .  S
C336        C340   1.536       .  S
C336        C338   1.541       .  S
C336        H342   1.092       .  S
C337        H343   1.089       .  S
C337        C338   1.343       .  D
C338       C2797   1.487       .  S
C339        H344   1.086       .  S
C339        C340   1.354       .  D
C340       C2277   1.497       .  S
C345        C346   1.552       .  S
C345        C351   1.555       .  S
C345        C349   1.534       .  S
C345       C2267   1.549       .  S
C346        H353   1.085       .  S
C346        C347   1.368       .  D
C347        C348   1.553       .  S
C347       C2444   1.519       .  S
C348        C352   1.557       .  S
C348        C350   1.565       .  S
C348        H354   1.095       .  S
C349        H355   1.086       .  S
C349        C350   1.357       .  D
C350       C2234   1.505       .  S
C351        H356   1.080       .  S
C351        C352   1.372       .  D
C352       C2487   1.533       .  S
C357        C358   1.570       .  S
C357        C363   1.560       .  S
C357        C361   1.550       .  S
C357       C2224   1.567       .  S
C358        H365   1.085       .  S
C358        C359   1.365       .  D
C359        C360   1.529       .  S
C359       C2477   1.514       .  S
C360        C364   1.551       .  S
C360        C362   1.542       .  S
C360        H366   1.090       .  S
C361        H367   1.080       .  S
C361        C362   1.363       .  D
C362       C2237   1.500       .  S
C363        H368   1.079       .  S
C363        C364   1.375       .  D
C364       C2457   1.531       .  S
C369        C370   1.567       .  S
C369        C375   1.537       .  S
C369        C373   1.545       .  S
C369       C2284   1.577       .  S
C370        H377   1.085       .  S
C370        C371   1.381       .  D
C371        C372   1.535       .  S
C371       C2207   1.511       .  S
C372        C376   1.551       .  S
C372        C374   1.549       .  S
C372        H378   1.105       .  S
C373        H379   1.070       .  S
C373        C374   1.364       .  D
C374       C2684   1.519       .  S
C375        H380   1.086       .  S
C375        C376   1.368       .  D
C376       C2214   1.511       .  S
C381        C382   1.538       .  S
C381        C387   1.543       .  S
C381        C385   1.576       .  S
C381       C2227   1.583       .  S
C382        H389   1.076       .  S
C382        C383   1.352       .  D
C383        C384   1.554       .  S
C383       C2707   1.510       .  S
C384        C388   1.556       .  S
C384        C386   1.542       .  S
C384        H390   1.109       .  S
C385        H391   1.081       .  S
C385        C386   1.383       .  D
C386       C2194   1.524       .  S
C387        H392   1.086       .  S
C387        C388   1.374       .  D
C388       C2217   1.518       .  S
C393        C394   1.547       .  S
C393        C399   1.551       .  S
C393        C397   1.554       .  S
C393       C2167   1.567       .  S
C394        H401   1.082       .  S
C394        C395   1.360       .  D
C395        C396   1.551       .  S
C395       C2184   1.508       .  S
C396        C400   1.555       .  S
C396        C398   1.551       .  S
C396        H402   1.110       .  S
C397        H403   1.083       .  S
C397        C398   1.367       .  D
C398       C2174   1.509       .  S
C399        H404   1.085       .  S
C399        C400   1.376       .  D
C400       C2154   1.530       .  S
C405        C406   1.534       .  S
C405        C411   1.548       .  S
C405        C409   1.556       .  S
C405       C2124   1.561       .  S
C406        H413   1.086       .  S
C406        C407   1.361       .  D
C407        C408   1.556       .  S
C407       C2134   1.506       .  S
C408        C412   1.560       .  S
C408        C410   1.554       .  S
C408        H414   1.109       .  S
C409        H415   1.084       .  S
C409        C410   1.373       .  D
C410       C2144   1.526       .  S
C411        H416   1.080       .  S
C411        C412   1.371       .  D
C412       C2157   1.522       .  S
C417        C418   1.562       .  S
C417        C423   1.556       .  S
C417        C421   1.544       .  S
C417       C2094   1.587       .  S
C418        H425   1.079       .  S
C418        C419   1.374       .  D
C419        C420   1.549       .  S
C419       C2114   1.530       .  S
C420        C424   1.559       .  S
C420        C422   1.548       .  S
C420        H426   1.108       .  S
C421        H427   1.083       .  S
C421        C422   1.361       .  D
C422       C2104   1.495       .  S
C423        H428   1.085       .  S
C423        C424   1.383       .  D
C424       C2084   1.542       .  S
C429        C430   1.555       .  S
C429        C435   1.553       .  S
C429        C433   1.549       .  S
C429       C2054   1.588       .  S
C430        H437   1.082       .  S
C430        C431   1.372       .  D
C431        C432   1.555       .  S
C431       C2064   1.518       .  S
C432        C436   1.564       .  S
C432        C434   1.554       .  S
C432        H438   1.109       .  S
C433        H439   1.078       .  S
C433        C434   1.361       .  D
C434       C2074   1.521       .  S
C435        H440   1.085       .  S
C435        C436   1.382       .  D
C436       C2087   1.539       .  S
C441        C442   1.533       .  S
C441        C447   1.554       .  S
C441        C445   1.557       .  S
C441       C2044   1.575       .  S
C442        H449   1.086       .  S
C442        C443   1.365       .  D
C443        C444   1.556       .  S
C443       C2427   1.509       .  S
C444        C448   1.551       .  S
C444        C446   1.555       .  S
C444        H450   1.103       .  S
C445        H451   1.063       .  S
C445        C446   1.378       .  D
C446       C2637   1.537       .  S
C447        H452   1.086       .  S
C447        C448   1.372       .  D
C448       C2034   1.529       .  S
C453        C454   1.560       .  S
C453        C459   1.565       .  S
C453        C457   1.540       .  S
C453       C2027   1.591       .  S
C454        H461   1.077       .  S
C454        C455   1.381       .  D
C455        C456   1.550       .  S
C455       C2604   1.528       .  S
C456        C460   1.536       .  S
C456        C458   1.551       .  S
C456        H462   1.103       .  S
C457        H463   1.086       .  S
C457        C458   1.367       .  D
C458       C2407   1.514       .  S
C459        H464   1.081       .  S
C459        C460   1.371       .  D
C460       C2037   1.521       .  S
C465       C1994   1.663       .  S
C465       C2004   1.654       .  S
C465       C2014   1.715       .  S
C465       C2097   1.634       .  S
C466       C1967   1.626       .  S
C466       C1974   1.674       .  S
C466       C1984   1.645       .  S
C466       C2017   1.735       .  S
C467       C1954   1.672       .  S
C467       C1987   1.671       .  S
C467       C2007   1.635       .  S
C467       C2164   1.608       .  S
C468       C1957   1.687       .  S
C468       C1977   1.671       .  S
C468       C1997   1.678       .  S
C468       C2047   1.625       .  S
C469       C1924   1.708       .  S
C469       C1934   1.674       .  S
C469       C1944   1.733       .  S
C469       C2057   1.625       .  S
C470       C1894   1.647       .  S
C470       C1904   1.727       .  S
C470       C1914   1.702       .  S
C470       C1947   1.688       .  S
C471       C1884   1.621       .  S
C471       C1917   1.674       .  S
C471       C1927   1.687       .  S
C471       C2127   1.632       .  S
C472       C1887   1.628       .  S
C472       C1907   1.692       .  S
C472       C1937   1.689       .  S
C472       C2024   1.628       .  S
C473        C474   1.543       .  S
C473        C479   1.566       .  S
C473        C477   1.542       .  S
C473       C1964   1.578       .  S
C474        H481   1.083       .  S
C474        C475   1.366       .  D
C475        C476   1.551       .  S
C475       C2327   1.520       .  S
C476        C480   1.571       .  S
C476        C478   1.557       .  S
C476        H482   1.103       .  S
C477        H483   1.078       .  S
C477        C478   1.358       .  D
C478       C2537   1.502       .  S
C479        H484   1.084       .  S
C479        C480   1.393       .  D
C480       C1874   1.567       .  S
C485        C486   1.539       .  S
C485        C491   1.576       .  S
C485        C489   1.548       .  S
C485       C1897   1.593       .  S
C486        H493   1.086       .  S
C486        C487   1.366       .  D
C487        C488   1.557       .  S
C487       C2517   1.503       .  S
C488        C492   1.562       .  S
C488        C490   1.549       .  S
C488        H494   1.102       .  S
C489        H495   1.085       .  S
C489        C490   1.365       .  D
C490       C2317   1.521       .  S
C491        H496   1.072       .  S
C491        C492   1.391       .  D
C492       C1877   1.565       .  S
C497        C498   1.565       .  S
C497        C503   1.540       .  S
C497        C501   1.549       .  S
C497       C1854   1.548       .  S
C498        H505   1.082       .  S
C498        C499   1.370       .  D
C499        C500   1.531       .  S
C499       C1844   1.500       .  S
C500        C504   1.547       .  S
C500        C502   1.547       .  S
C500        H506   1.110       .  S
C501        H507   1.085       .  S
C501        C502   1.371       .  D
C502       C1837   1.511       .  S
C503        H508   1.077       .  S
C503        C504   1.347       .  D
C504       C1864   1.489       .  S
C509        C510   1.554       .  S
C509        C515   1.555       .  S
C509        C513   1.541       .  S
C509       C1824   1.561       .  S
C510        H517   1.085       .  S
C510        C511   1.371       .  D
C511        C512   1.531       .  S
C511       C1804   1.506   1_565  S
C512        C516   1.544       .  S
C512        C514   1.535       .  S
C512        H518   1.092       .  S
C513        H519   1.085       .  S
C513        C514   1.371       .  D
C514       C1867   1.495       .  S
C515        H520   1.082       .  S
C515        C516   1.367       .  D
C516       C1814   1.512       .  S
In521       O523   2.238       .  S
In521       O524   2.209       .  S
In521       O532   2.227       .  S
In521       O526   2.272       .  S
In521       O528   2.286       .  S
In521       O529   2.198       .  S
In521       O530   2.218       .  S
In521       O533   2.242       .  S
C522        O528   1.275       .  A
C522        O530   1.261       .  A
C522       C2117   1.514       .  S
O523        C531   1.268       .  A
O524        C531   1.264       .  A
C525        O532   1.259       .  A
C525        O526   1.273       .  A
C525       C1827   1.493       .  S
C527        O529   1.264       .  A
C527        O533   1.262       .  A
C527       C1794   1.462       .  S
C531       C1784   1.484       .  S
In534       O536   2.245       .  S
In534       O537   2.188       .  S
In534       O545   2.214       .  S
In534       O539   2.259       .  S
In534       O541   2.278       .  S
In534       O542   2.201       .  S
In534       O543   2.204       .  S
In534       O546   2.238       .  S
C535        O541   1.274       .  A
C535        O543   1.259       .  A
C535       C2077   1.507       .  S
O536        C544   1.264       .  A
O537        C544   1.263       .  A
C538        O545   1.258       .  A
C538        O539   1.272       .  A
C538       C1774   1.486       .  S
C540        O542   1.263       .  A
C540        O546   1.267       .  A
C540       C1764   1.476       .  S
C544       C1797   1.460       .  S
C547        C548   1.542       .  S
C547        C553   1.562       .  S
C547        C551   1.554       .  S
C547       C1777   1.549       .  S
C548        H555   1.080       .  S
C548        C549   1.352       .  D
C549        C550   1.547       .  S
C549       C1754   1.492       .  S
C550        C554   1.532       .  S
C550        C552   1.541       .  S
C550        H556   1.111       .  S
C551        H557   1.085       .  S
C551        C552   1.372       .  D
C552       C1734   1.510       .  S
C553        H558   1.082       .  S
C553        C554   1.367       .  D
C554       C1744   1.493       .  S
C559        C560   1.540       .  S
C559        C565   1.549       .  S
C559        C563   1.557       .  S
C559       C1724   1.554       .  S
C560        H567   1.080       .  S
C560        C561   1.365       .  D
C561        C562   1.541       .  S
C561       C1757   1.498       .  S
C562        C566   1.544       .  S
C562        C564   1.529       .  S
C562        H568   1.093       .  S
C563        H569   1.083       .  S
C563        C564   1.365       .  D
C564       C1704   1.498       .  S
C565        H570   1.085       .  S
C565        C566   1.373       .  D
C566       C1717   1.510       .  S
In571       O573   2.240       .  S
In571       O574   2.214       .  S
In571       O582   2.198       .  S
In571       O576   2.248       .  S
In571       O578   2.275       .  S
In571       O579   2.205       .  S
In571       O580   2.190       .  S
In571       O583   2.251       .  S
C572        O578   1.273       .  A
C572        O580   1.261       .  A
C572       C2187   1.496       .  S
O573        C581   1.267       .  A
O574        C581   1.264       .  A
C575        O582   1.260       .  A
C575        O576   1.274       .  A
C575       C1857   1.476       .  S
C577        O579   1.267       .  A
C577        O583   1.263       .  A
C577       C1694   1.465       .  S
C581       C1684   1.499       .  S
In584       O586   2.258       .  S
In584       O587   2.201       .  S
In584       O595   2.215       .  S
In584       O589   2.264       .  S
In584       O591   2.287       .  S
In584       O592   2.220       .  S
In584       O593   2.203       .  S
In584       O596   2.228       .  S
C585        O591   1.274       .  A
C585        O593   1.261       .  A
C585       C2147   1.506       .  S
O586        C594   1.263       .  A
O587        C594   1.264       .  A
C588        O595   1.257       .  A
C588        O589   1.273       .  A
C588       C1727   1.493       .  S
C590        O592   1.266       .  A
C590        O596   1.267       .  A
C590       C1674   1.483       .  S
C594       C1697   1.467       .  S
C597        C598   1.541       .  S
C597        C603   1.545       .  S
C597        C601   1.558       .  S
C597       C1654   1.562       .  S
C598        H605   1.086       .  S
C598        C599   1.365       .  D
C599        C600   1.553       .  S
C599       C1747   1.516       .  S
C600        C604   1.568       .  S
C600        C602   1.553       .  S
C600        H606   1.106       .  S
C601        H607   1.078       .  S
C601        C602   1.378       .  D
C602       C1667   1.518       .  S
C603        H608   1.087       .  S
C603        C604   1.353       .  D
C604       C1707   1.510       .  S
C609        C610   1.544       .  S
C609        C615   1.561       .  S
C609        C613   1.559       .  S
C609       C1644   1.562       .  S
C610        H617   1.086       .  S
C610        C611   1.358       .  D
C611        C612   1.557       .  S
C611       C1714   1.511       .  S
C612        C616   1.555       .  S
C612        C614   1.552       .  S
C612        H618   1.105       .  S
C613        H619   1.078       .  S
C613        C614   1.373       .  D
C614       C1664   1.501       .  S
C615        H620   1.086       .  S
C615        C616   1.362       .  D
C616       C1737   1.525       .  S
C621        C622   1.546       .  S
C621        C627   1.543       .  S
C621        C625   1.551       .  S
C621       C1617   1.555       .  S
C622        H629   1.082       .  S
C622        C623   1.362       .  D
C623        C624   1.549       .  S
C623       C1634   1.510       .  S
C624        C628   1.548       .  S
C624        C626   1.542       .  S
C624        H630   1.109       .  S
C625        H631   1.085       .  S
C625        C626   1.370       .  D
C626       C1607   1.503       .  S
C627        H632   1.078       .  S
C627        C628   1.369       .  D
C628       C1624   1.507       .  S
C633        C634   1.569       .  S
C633        C639   1.545       .  S
C633        C637   1.539       .  S
C633       C1647   1.573       .  S
C634        H641   1.080       .  S
C634        C635   1.383       .  D
C635        C636   1.551       .  S
C635       C1587   1.525       .  S
C636        C640   1.555       .  S
C636        C638   1.545       .  S
C636        H642   1.110       .  S
C637        H643   1.082       .  S
C637        C638   1.347       .  D
C638       C1594   1.498       .  S
C639        H644   1.085       .  S
C639        C640   1.373       .  D
C640       C1627   1.521       .  S
C645        C646   1.552       .  S
C645        C651   1.545       .  S
C645        C649   1.558       .  S
C645       C1564   1.553       .  S
C646        H653   1.086       .  S
C646        C647   1.360       .  D
C647        C648   1.554       .  S
C647       C1834   1.508       .  S
C648        C652   1.559       .  S
C648        C650   1.547       .  S
C648        H654   1.105       .  S
C649        H655   1.077       .  S
C649        C650   1.366       .  D
C650       C1574   1.497       .  S
C651        H656   1.085       .  S
C651        C652   1.360       .  D
C652       C1817   1.518       .  S
C657        C658   1.543       .  S
C657        C663   1.561       .  S
C657        C661   1.545       .  S
C657       C1614   1.562       .  S
C658        H665   1.086       .  S
C658        C659   1.358       .  D
C659        C660   1.568       .  S
C659       C1807   1.510       .  S
C660        C664   1.555       .  S
C660        C662   1.548       .  S
C660        H666   1.106       .  S
C661        H667   1.085       .  S
C661        C662   1.372       .  D
C662       C1577   1.511       .  S
C663        H668   1.082       .  S
C663        C664   1.377       .  D
C664       C1847   1.531       .  S
C669        C670   1.567       .  S
C669        C675   1.534       .  S
C669        C673   1.550       .  S
C669       C1657   1.565       .  S
C670        H677   1.081       .  S
C670        C671   1.374       .  D
C671        C672   1.533       .  S
C671       C1534   1.508       .  S
C672        C676   1.549       .  S
C672        C674   1.551       .  S
C672        H678   1.101       .  S
C673        H679   1.079       .  S
C673        C674   1.366       .  D
C674       C1554   1.525       .  S
C675        H680   1.086       .  S
C675        C676   1.362       .  D
C676       C1547   1.495       .  S
C681        C682   1.547       .  S
C681        C687   1.531       .  S
C681        C685   1.553       .  S
C681       C1567   1.556       .  S
C682        H689   1.076       .  S
C682        C683   1.371       .  D
C683        C684   1.556       .  S
C683       C1524   1.531       .  S
C684        C688   1.554       .  S
C684        C686   1.540       .  S
C684        H690   1.100       .  S
C685        H691   1.084       .  S
C685        C686   1.366       .  D
C686       C1514   1.498       .  S
C687        H692   1.086       .  S
C687        C688   1.364       .  D
C688       C1544   1.500       .  S
C693        C694   1.540       .  S
C693        C699   1.552       .  S
C693        C697   1.567       .  S
C693       C1494   1.557       .  S
C694        H701   1.087       .  S
C694        C695   1.349       .  D
C695        C696   1.534       .  S
C695       C1504   1.468       .  S
C696        C700   1.550       .  S
C696        C698   1.550       .  S
C696        H702   1.105       .  S
C697        H703   1.084       .  S
C697        C698   1.384       .  D
C698       C1474   1.534       .  S
C699        H704   1.080       .  S
C699        C700   1.361       .  D
C700       C1484   1.501       .  S
C705        C706   1.530       .  S
C705        C711   1.538       .  S
C705        C709   1.567       .  S
C705       C1464   1.554       .  S
C706        H713   1.088       .  S
C706        C707   1.346       .  D
C707        C708   1.533       .  S
C707       C1507   1.470       .  S
C708        C712   1.564       .  S
C708        C710   1.556       .  S
C708        H714   1.110       .  S
C709        H715   1.071       .  S
C709        C710   1.382       .  D
C710       C1444   1.538       .  S
C711        H716   1.086       .  S
C711        C712   1.364       .  D
C712       C1454   1.501       .  S
In717       O719   2.244       .  S
In717       O720   2.172       .  S
In717       O728   2.227       .  S
In717       O722   2.292       .  S
In717       O724   2.254       .  S
In717       O725   2.214       .  S
In717       O726   2.276       .  S
In717       O729   2.244       .  S
C718        O724   1.261       .  A
C718        O726   1.262       .  A
C718       C1424   1.498       .  S
O719        C727   1.263       .  A
O720        C727   1.258       .  A
C721        O728   1.250       .  A
C721        O722   1.268       .  A
C721       C1467   1.493       .  S
C723        O725   1.259       .  A
C723        O729   1.266       .  A
C723       C1637   1.487       .  S
C727       C1434   1.455       .  S
In730       O732   2.228       .  S
In730       O733   2.208       .  S
In730       O741   2.214       .  S
In730       O735   2.265       .  S
In730       O737   2.219       .  S
In730       O738   2.176       .  S
In730       O739   2.284       .  S
In730       O742   2.227       .  S
C731        O737   1.256       .  A
C731        O739   1.265       .  A
C731       C1404   1.484       .  S
O732        C740   1.266       .  A
O733        C740   1.262       .  A
C734        O741   1.254       .  A
C734        O735   1.269       .  A
C734       C1414   1.473       .  S
C736        O738   1.263       .  A
C736        O742   1.263       .  A
C736       C1437   1.457       .  S
C740       C1597   1.488       .  S
C743        C744   1.540       .  S
C743        C749   1.536       .  S
C743        C747   1.558       .  S
C743       C1417   1.536       .  S
C744        H751   1.084       .  S
C744        C745   1.363       .  D
C745        C746   1.543       .  S
C745       C1374   1.491       .  S
C746        C750   1.525       .  S
C746        C748   1.548       .  S
C746        H752   1.087       .  S
C747        H753   1.074       .  S
C747        C748   1.381       .  D
C748       C1384   1.520       .  S
C749        H754   1.087       .  S
C749        C750   1.340       .  D
C750       C1394   1.475       .  S
C755        C756   1.556       .  S
C755        C761   1.535       .  S
C755        C759   1.554       .  S
C755       C1364   1.543       .  S
C756        H763   1.076       .  S
C756        C757   1.374       .  D
C757        C758   1.547       .  S
C757       C1354   1.510       .  S
C758        C762   1.553       .  S
C758        C760   1.535       .  S
C758        H764   1.109       .  S
C759        H765   1.085       .  S
C759        C760   1.369       .  D
C760       C1344   1.496       .  S
C761        H766   1.088       .  S
C761        C762   1.338       .  D
C762       C1397   1.481       .  S
In767       O769   2.245       .  S
In767       O770   2.182       .  S
In767       O778   2.231       .  S
In767       O772   2.266       .  S
In767       O774   2.278       .  S
In767       O775   2.239       .  S
In767       O776   2.230       .  S
In767       O779   2.223       .  S
C768        O774   1.271       .  A
C768        O776   1.260       .  A
C768       C1324   1.488       .  S
O769        C777   1.265       .  A
O770        C777   1.266       .  A
C771        O778   1.260       .  A
C771        O772   1.271       .  A
C771       C1497   1.493       .  S
C773        O775   1.264       .  A
C773        O779   1.264       .  A
C773       C1527   1.491       .  S
C777       C1334   1.460       .  S
In780       O782   2.229       .  S
In780       O783   2.210       .  S
In780       O791   2.207       .  S
In780       O785   2.244       .  S
In780       O787   2.255       .  S
In780       O788   2.199       .  S
In780       O789   2.210       .  S
In780       O792   2.233       .  S
C781        O787   1.272       .  A
C781        O789   1.261       .  A
C781       C1314   1.501       .  S
O782        C790   1.266       .  A
O783        C790   1.265       .  A
C784        O791   1.258       .  A
C784        O785   1.270       .  A
C784       C1367   1.473       .  S
C786        O788   1.265       .  A
C786        O792   1.261       .  A
C786       C1337   1.461       .  S
C790       C1557   1.476       .  S
C793        C794   1.548       .  S
C793        C799   1.536       .  S
C793        C797   1.546       .  S
C793       C1294   1.549       .  S
C794        H801   1.085       .  S
C794        C795   1.371       .  D
C795        C796   1.555       .  S
C795       C2177   1.513       .  S
C796        C800   1.550       .  S
C796        C798   1.548       .  S
C796        H802   1.110       .  S
C797        H803   1.085       .  S
C797        C798   1.361       .  D
C798       C1687   1.507       .  S
C799        H804   1.074       .  S
C799        C800   1.362       .  D
C800       C1304   1.498       .  S
C805        C806   1.547       .  S
C805        C811   1.537       .  S
C805        C809   1.556       .  S
C805       C1284   1.555       .  S
C806        H813   1.076       .  S
C806        C807   1.359       .  D
C807        C808   1.547       .  S
C807       C1677   1.514       .  S
C808        C812   1.553       .  S
C808        C810   1.542       .  S
C808        H814   1.108       .  S
C809        H815   1.082       .  S
C809        C810   1.369       .  D
C810       C2137   1.498       .  S
C811        H816   1.085       .  S
C811        C812   1.368       .  D
C812       C1307   1.512       .  S
C817        C818   1.553       .  S
C817        C823   1.560       .  S
C817        C821   1.546       .  S
C817       C1264   1.550       .  S
C818        H825   1.084       .  S
C818        C819   1.361       .  D
C819        C820   1.547       .  S
C819       C1487   1.508       .  S
C820        C824   1.539       .  S
C820        C822   1.554       .  S
C820        H826   1.110       .  S
C821        H827   1.083       .  S
C821        C822   1.367       .  D
C822       C1274   1.507       .  S
C823        H828   1.085       .  S
C823        C824   1.370       .  D
C824       C1447   1.508       .  S
C829        C830   1.545       .  S
C829        C835   1.559       .  S
C829        C833   1.549       .  S
C829       C1297   1.553       .  S
C830        H837   1.085       .  S
C830        C831   1.351       .  D
C831        C832   1.528       .  S
C831       C1457   1.492       .  S
C832        C836   1.551       .  S
C832        C834   1.542       .  S
C832        H838   1.086       .  S
C833        H839   1.082       .  S
C833        C834   1.383       .  D
C834       C1277   1.515       .  S
C835        H840   1.083       .  S
C835        C836   1.372       .  D
C836       C1477   1.525       .  S
C841        C842   1.557       .  S
C841        C847   1.557       .  S
C841        C845   1.554       .  S
C841       C1244   1.562       .  S
C842        H849   1.083       .  S
C842        C843   1.367       .  D
C843        C844   1.548       .  S
C843       C1387   1.515       .  S
C844        C848   1.536       .  S
C844        C846   1.541       .  S
C844        H850   1.110       .  S
C845        H851   1.078       .  S
C845        C846   1.367       .  D
C846       C1254   1.500       .  S
C847        H852   1.086       .  S
C847        C848   1.363       .  D
C848       C1357   1.496       .  S
C853        C854   1.553       .  S
C853        C859   1.533       .  S
C853        C857   1.548       .  S
C853       C1287   1.543       .  S
C854        H861   1.085       .  S
C854        C855   1.359       .  D
C855        C856   1.552       .  S
C855       C1347   1.509       .  S
C856        C860   1.562       .  S
C856        C858   1.563       .  S
C856        H862   1.102       .  S
C857        H863   1.084       .  S
C857        C858   1.369       .  D
C858       C1257   1.504       .  S
C859        H864   1.084       .  S
C859        C860   1.356       .  D
C860       C1377   1.511       .  S
C865        C866   1.543       .  S
C865        C871   1.542       .  S
C865        C869   1.548       .  S
C865       C1267   1.547       .  S
C866        H873   1.086       .  S
C866        C867   1.360       .  D
C867        C868   1.540       .  S
C867       C2107   1.492       .  S
C868        C872   1.551       .  S
C868        C870   1.555       .  S
C868        H874   1.108       .  S
C869        H875   1.082       .  S
C869        C870   1.369       .  D
C870       C1787   1.525       .  S
C871        H876   1.079       .  S
C871        C872   1.367       .  D
C872       C1234   1.498       .  S
C877        C878   1.542       .  S
C877        C883   1.533       .  S
C877        C881   1.563       .  S
C877       C1247   1.559       .  S
C878        H885   1.076       .  S
C878        C879   1.360       .  D
C879        C880   1.553       .  S
C879       C1767   1.516       .  S
C880        C884   1.555       .  S
C880        C882   1.543       .  S
C880        H886   1.107       .  S
C881        H887   1.084       .  S
C881        C882   1.375       .  D
C882       C2067   1.509       .  S
C883        H888   1.086       .  S
C883        C884   1.364       .  D
C884       C1237   1.506       .  S
C889        C890   1.556       .  S
C889        C895   1.561       .  S
C889        C893   1.539       .  S
C889       C1224   1.581       .  S
C890        H897   1.084       .  S
C890        C891   1.377       .  D
C891        C892   1.557       .  S
C891       C2677   1.526       .  S
C892        C896   1.561       .  S
C892        C894   1.560       .  S
C892        H898   1.110       .  S
C893        H899   1.086       .  S
C893        C894   1.363       .  D
C894       C2204   1.517       .  S
C895        H900   1.080       .  S
C895        C896   1.378       .  D
C896       C1214   1.542       .  S
C901        C902   1.561       .  S
C901        C907   1.563       .  S
C901        C905   1.539       .  S
C901       C1204   1.595       .  S
C902        H909   1.084       .  S
C902        C903   1.372       .  D
C903        C904   1.555       .  S
C903       C2197   1.530       .  S
C904        C908   1.564       .  S
C904        C906   1.555       .  S
C904        H910   1.109       .  S
C905        H911   1.084       .  S
C905        C906   1.367       .  D
C906       C2694   1.521       .  S
C907        H912   1.083       .  S
C907        C908   1.384       .  D
C908       C1217   1.544       .  S
C913        C914   1.533       .  S
C913        C919   1.569       .  S
C913        C917   1.558       .  S
C913       C1197   1.589       .  S
C914        H921   1.087       .  S
C914        C915   1.353       .  D
C915        C916   1.546       .  S
C915       C2257   1.501       .  S
C916        C920   1.557       .  S
C916        C918   1.558       .  S
C916        H922   1.108       .  S
C917        H923   1.078       .  S
C917        C918   1.381       .  D
C918       C2817   1.536       .  S
C919        H924   1.084       .  S
C919        C920   1.387       .  D
C920       C1184   1.542       .  S
C925        C926   1.544       .  S
C925        C931   1.557       .  S
C925        C929   1.559       .  S
C925       C1177   1.581       .  S
C926        H933   1.076       .  S
C926        C927   1.357       .  D
C927        C928   1.553       .  S
C927       C2787   1.508       .  S
C928        C932   1.553       .  S
C928        C930   1.559       .  S
C928        H934   1.109       .  S
C929        H935   1.083       .  S
C929        C930   1.378       .  D
C930       C2247   1.532       .  S
C931        H936   1.085       .  S
C931        C932   1.378       .  D
C932       C1187   1.537       .  S
C937        C938   1.554       .  S
C937        C943   1.561       .  S
C937        C941   1.530       .  S
C937       C1164   1.579       .  S
C938        H945   1.079       .  S
C938        C939   1.373       .  D
C939        C940   1.556       .  S
C939       C1604   1.528       .  S
C940        C944   1.563       .  S
C940        C942   1.563       .  S
C940        H946   1.108       .  S
C941        H947   1.087       .  S
C941        C942   1.362       .  D
C942       C1427   1.508       .  S
C943        H948   1.084       .  S
C943        C944   1.379       .  D
C944       C1154   1.541       .  S
C949        C950   1.539       .  S
C949        C955   1.555       .  S
C949        C953   1.563       .  S
C949       C1144   1.576       .  S
C950        H957   1.082       .  S
C950        C951   1.354       .  D
C951        C952   1.553       .  S
C951       C1407   1.497       .  S
C952        C956   1.552       .  S
C952        C954   1.553       .  S
C952        H958   1.102       .  S
C953        H959   1.084       .  S
C953        C954   1.387       .  D
C954       C1584   1.541       .  S
C955        H960   1.085       .  S
C955        C956   1.379       .  D
C956       C1157   1.533       .  S
C961       C1114   1.635       .  S
C961       C1124   1.650       .  S
C961       C1134   1.671       .  S
C961       C1174   1.637       .  S
C962       C1084   1.656       .  S
C962       C1097   1.643       .  S
C962       C1104   1.643       .  S
C962       C1137   1.618       .  S
C963       C1074   1.655       .  S
C963       C1107   1.637       .  S
C963       C1117   1.645       .  S
C963       C1227   1.627       .  S
C964       C1077   1.664       .  S
C964       C1094   1.649       .  S
C964       C1127   1.624       .  S
C964       C1147   1.626       .  S
C965       C1034   1.631       .  S
C965       C1044   1.672       .  S
C965       C1054   1.629       .  S
C965       C1064   1.663       .  S
C966       C1014   1.594       .  S
C966       C1024   1.637       .  S
C966       C1067   1.670       .  S
C966       C1194   1.614       .  S
C967       C1004   1.608       .  S
C967       C1027   1.613       .  S
C967       C1057   1.653       .  S
C967       C1207   1.643       .  S
C968       C1007   1.649       .  S
C968       C1017   1.648       .  S
C968       C1047   1.610       .  S
C968       C1167   1.613       .  S
C969        C970   1.539       .  S
C969        C975   1.560       .  S
C969        C973   1.560       .  S
C969       C1087   1.592       .  S
C970        H977   1.084       .  S
C970        C971   1.366       .  D
C971        C972   1.553       .  S
C971       C1317   1.507       .  S
C972        C976   1.558       .  S
C972        C974   1.551       .  S
C972        H978   1.110       .  S
C973        H979   1.080       .  S
C973        C974   1.372       .  D
C974       C1537   1.522       .  S
C975        H980   1.085       .  S
C975        C976   1.385       .  D
C976        C994   1.542       .  S
C981        C982   1.534       .  S
C981        C987   1.563       .  S
C981        C985   1.556       .  S
C981       C1037   1.586       .  S
C982        H989   1.087       .  S
C982        C983   1.357       .  D
C983        C984   1.560       .  S
C983       C1517   1.501       .  S
C984        C988   1.554       .  S
C984        C986   1.544       .  S
C984        H990   1.099       .  S
C985        H991   1.084       .  S
C985        C986   1.374       .  D
C986       C1327   1.521       .  S
C987        H992   1.081       .  S
C987        C988   1.387       .  D
C988        C997   1.544       .  S
C993        C994   1.420       .  A
C993        C998   1.428       .  A
C993      Br1000   1.928       .  S
C994        C995   1.422       .  A
C995        C996   1.426       .  A
C995      Br1002   1.923       .  S
C996        C997   1.423       .  A
C996      Br1001   1.935       .  S
C997        C998   1.426       .  A
C998       Br999   1.927       .  S
C1003      C1004   1.454       .  A
C1003      C1008   1.409       .  A
C1003     Br1010   1.935       .  S
C1004      C1005   1.409   1_455  A
C1005      C1006   1.439       .  A
C1005     Br1012   1.941       .  S
C1006      C1007   1.451       .  A
C1006     Br1011   1.925       .  S
C1007      C1008   1.405   1_655  A
C1008     Br1009   1.934       .  S
C1013      C1014   1.395       .  A
C1013      C1018   1.422   1_455  A
C1013     Br1020   1.938       .  S
C1014      C1015   1.408       .  A
C1015      C1016   1.438       .  A
C1015     Br1022   1.922       .  S
C1016      C1017   1.442   1_455  A
C1016     Br1021   1.936       .  S
C1017      C1018   1.454       .  A
C1018     Br1019   1.933       .  S
C1023      C1024   1.372       .  A
C1023      C1028   1.370       .  A
C1023     Br1030   1.938       .  S
C1024      C1025   1.476       .  A
C1025      C1026   1.487       .  A
C1025     Br1032   1.926       .  S
C1026      C1027   1.454       .  A
C1026     Br1031   1.920       .  S
C1027      C1028   1.405       .  A
C1028     Br1029   1.886       .  S
C1033      C1034   1.451       .  A
C1033      C1038   1.433       .  A
C1033     Br1040   1.931       .  S
C1034      C1035   1.428       .  A
C1035      C1036   1.425       .  A
C1035     Br1042   1.917       .  S
C1036      C1037   1.424       .  A
C1036     Br1041   1.934       .  S
C1037      C1038   1.430       .  A
C1038     Br1039   1.945       .  S
C1043      C1044   1.464       .  A
C1043      C1048   1.434       .  A
C1043     Br1050   1.943       .  S
C1044      C1045   1.464       .  A
C1045      C1046   1.434       .  A
C1045     Br1052   1.944       .  S
C1046      C1047   1.402       .  A
C1046     Br1051   1.947       .  S
C1047      C1048   1.400       .  A
C1048     Br1049   1.952       .  S
C1053      C1054   1.423       .  A
C1053      C1058   1.441   1_655  A
C1053     Br1060   1.937       .  S
C1054      C1055   1.395       .  A
C1055      C1056   1.430       .  A
C1055     Br1062   1.950       .  S
C1056      C1057   1.451   1_655  A
C1056     Br1061   1.926       .  S
C1057      C1058   1.450       .  A
C1058     Br1059   1.928       .  S
C1063      C1064   1.406       .  A
C1063      C1068   1.435       .  A
C1063     Br1070   1.946       .  S
C1064      C1065   1.462   1_655  A
C1065      C1066   1.454       .  A
C1065     Br1072   1.919       .  S
C1066      C1067   1.424       .  A
C1066     Br1071   1.924       .  S
C1067      C1068   1.451   1_455  A
C1068     Br1069   1.938       .  S
C1073      C1074   1.417       .  A
C1073      C1078   1.431       .  A
C1073     Br1080   1.936       .  S
C1074      C1075   1.413   1_455  A
C1075      C1076   1.455       .  A
C1075     Br1082   1.932       .  S
C1076      C1077   1.456       .  A
C1076     Br1081   1.930       .  S
C1077      C1078   1.449   1_655  A
C1078     Br1079   1.944       .  S
C1083      C1084   1.458       .  A
C1083      C1088   1.444       .  A
C1083     Br1090   1.914       .  S
C1084      C1085   1.439       .  A
C1085      C1086   1.416       .  A
C1085     Br1092   1.934       .  S
C1086      C1087   1.417       .  A
C1086     Br1091   1.926       .  S
C1087      C1088   1.422       .  A
C1088     Br1089   1.939       .  S
C1093      C1094   1.482       .  A
C1093      C1098   1.503       .  A
C1093     Br1100   1.922       .  S
C1094      C1095   1.367       .  A
C1095      C1096   1.388       .  A
C1095     Br1102   1.947       .  S
C1096      C1097   1.408       .  A
C1096     Br1101   1.876       .  S
C1097      C1098   1.453       .  A
C1098     Br1099   1.926       .  S
C1103      C1104   1.443       .  A
C1103      C1108   1.439       .  A
C1103     Br1110   1.941       .  S
C1104      C1105   1.440   1_655  A
C1105      C1106   1.425       .  A
C1105     Br1112   1.924       .  S
C1106      C1107   1.413       .  A
C1106     Br1111   1.940       .  S
C1107      C1108   1.451   1_455  A
C1108     Br1109   1.930       .  S
C1113      C1114   1.450       .  A
C1113      C1118   1.442       .  A
C1113     Br1120   1.928       .  S
C1114      C1115   1.449       .  A
C1115      C1116   1.421       .  A
C1115     Br1122   1.925       .  S
C1116      C1117   1.412       .  A
C1116     Br1121   1.931       .  S
C1117      C1118   1.411       .  A
C1118     Br1119   1.932       .  S
C1123      C1124   1.428       .  A
C1123      C1128   1.454   1_455  A
C1123     Br1130   1.934       .  S
C1124      C1125   1.411   1_455  A
C1125      C1126   1.432       .  A
C1125     Br1132   1.943       .  S
C1126      C1127   1.431       .  A
C1126     Br1131   1.922       .  S
C1127      C1128   1.417       .  A
C1128     Br1129   1.937       .  S
C1133      C1134   1.432       .  A
C1133      C1138   1.462       .  A
C1133     Br1140   1.942       .  S
C1134      C1135   1.419       .  A
C1135      C1136   1.407   1_455  A
C1135     Br1142   1.945       .  S
C1136      C1137   1.446       .  A
C1136     Br1141   1.933       .  S
C1137      C1138   1.435   1_655  A
C1138     Br1139   1.944       .  S
C1143      C1144   1.414       .  A
C1143      C1148   1.408       .  A
C1143     Br1150   1.918       .  S
C1144      C1145   1.419       .  A
C1145      C1146   1.449       .  A
C1145     Br1152   1.931       .  S
C1146      C1147   1.470       .  A
C1146     Br1151   1.923       .  S
C1147      C1148   1.418       .  A
C1148     Br1149   1.920       .  S
C1153      C1154   1.422       .  A
C1153      C1158   1.430       .  A
C1153     Br1160   1.923       .  S
C1154      C1155   1.419       .  A
C1155      C1156   1.423       .  A
C1155     Br1162   1.911       .  S
C1156      C1157   1.415   1_556  A
C1156     Br1161   1.927   1_556  S
C1157      C1158   1.418   1_554  A
C1158     Br1159   1.928   1_556  S
C1163      C1164   1.426       .  A
C1163      C1168   1.413       .  A
C1163     Br1170   1.931       .  S
C1164      C1165   1.420       .  A
C1165      C1166   1.419       .  A
C1165     Br1172   1.927       .  S
C1166      C1167   1.429       .  A
C1166     Br1171   1.926       .  S
C1167      C1168   1.419       .  A
C1168     Br1169   1.914       .  S
C1173      C1174   1.441       .  A
C1173      C1178   1.417       .  A
C1173     Br1180   1.928       .  S
C1174      C1175   1.435       .  A
C1175      C1176   1.428       .  A
C1175     Br1182   1.895       .  S
C1176      C1177   1.411       .  A
C1176     Br1181   1.934       .  S
C1177      C1178   1.414       .  A
C1178     Br1179   1.938       .  S
C1183      C1184   1.420       .  A
C1183      C1188   1.425   1_556  A
C1183     Br1190   1.922       .  S
C1184      C1185   1.424       .  A
C1185      C1186   1.432   1_556  A
C1185     Br1192   1.929       .  S
C1186      C1187   1.421       .  A
C1186     Br1191   1.932       .  S
C1187      C1188   1.417       .  A
C1188     Br1189   1.927       .  S
C1193      C1194   1.423       .  A
C1193      C1198   1.437       .  A
C1193     Br1200   1.932       .  S
C1194      C1195   1.418       .  A
C1195      C1196   1.429       .  A
C1195     Br1202   1.923       .  S
C1196      C1197   1.428       .  A
C1196     Br1201   1.935       .  S
C1197      C1198   1.438       .  A
C1198     Br1199   1.934       .  S
C1203      C1204   1.424       .  A
C1203      C1208   1.430       .  A
C1203     Br1210   1.939       .  S
C1204      C1205   1.419       .  A
C1205      C1206   1.425       .  A
C1205     Br1212   1.922       .  S
C1206      C1207   1.443       .  A
C1206     Br1211   1.932       .  S
C1207      C1208   1.441       .  A
C1208     Br1209   1.921       .  S
C1213      C1214   1.425       .  A
C1213      C1218   1.427       .  A
C1213     Br1220   1.937       .  S
C1214      C1215   1.420       .  A
C1215      C1216   1.427       .  A
C1215     Br1222   1.921       .  S
C1216      C1217   1.419       .  A
C1216     Br1221   1.922       .  S
C1217      C1218   1.423       .  A
C1218     Br1219   1.925       .  S
C1223      C1224   1.426       .  A
C1223      C1228   1.418       .  A
C1223     Br1230   1.921       .  S
C1224      C1225   1.423       .  A
C1225      C1226   1.436       .  A
C1225     Br1232   1.941       .  S
C1226      C1227   1.447       .  A
C1226     Br1231   1.907       .  S
C1227      C1228   1.412       .  A
C1228     Br1229   1.916       .  S
C1233      C1234   1.410       .  A
C1233      C1238   1.411       .  A
C1233     Br1240   1.912       .  S
C1234      C1235   1.412       .  A
C1235      C1236   1.410       .  A
C1235     Br1242   1.939       .  S
C1236      C1237   1.417   1_556  A
C1236     Br1241   1.916   1_556  S
C1237      C1238   1.408   1_554  A
C1238     Br1239   1.916   1_556  S
C1243      C1244   1.422       .  A
C1243      C1248   1.400       .  A
C1243     Br1250   1.933       .  S
C1244      C1245   1.432       .  A
C1245      C1246   1.429       .  A
C1245     Br1252   1.931       .  S
C1246      C1247   1.419       .  A
C1246     Br1251   1.934       .  S
C1247      C1248   1.418       .  A
C1248     Br1249   1.932       .  S
C1253      C1254   1.417       .  A
C1253      C1258   1.421       .  A
C1253     Br1260   1.927       .  S
C1254      C1255   1.408       .  A
C1255      C1256   1.407       .  A
C1255     Br1262   1.911       .  S
C1256      C1257   1.398       .  A
C1256     Br1261   1.915       .  S
C1257      C1258   1.405       .  A
C1258     Br1259   1.917       .  S
C1263      C1264   1.415       .  A
C1263      C1268   1.405       .  A
C1263     Br1270   1.923       .  S
C1264      C1265   1.419       .  A
C1265      C1266   1.419       .  A
C1265     Br1272   1.930       .  S
C1266      C1267   1.419       .  A
C1266     Br1271   1.931       .  S
C1267      C1268   1.419       .  A
C1268     Br1269   1.936       .  S
C1273      C1274   1.417       .  A
C1273      C1278   1.430       .  A
C1273     Br1280   1.929       .  S
C1274      C1275   1.381       .  A
C1275      C1276   1.372       .  A
C1275     Br1282   1.877       .  S
C1276      C1277   1.415       .  A
C1276     Br1281   1.928       .  S
C1277      C1278   1.433       .  A
C1278     Br1279   1.929       .  S
C1283      C1284   1.421       .  A
C1283      C1288   1.393       .  A
C1283     Br1290   1.933       .  S
C1284      C1285   1.422       .  A
C1285      C1286   1.419       .  A
C1285     Br1292   1.931       .  S
C1286      C1287   1.422       .  A
C1286     Br1291   1.933       .  S
C1287      C1288   1.416       .  A
C1288     Br1289   1.942       .  S
C1293      C1294   1.416       .  A
C1293      C1298   1.406       .  A
C1293     Br1300   1.931       .  S
C1294      C1295   1.422       .  A
C1295      C1296   1.419       .  A
C1295     Br1302   1.931       .  S
C1296      C1297   1.415       .  A
C1296     Br1301   1.928       .  S
C1297      C1298   1.418       .  A
C1298     Br1299   1.923       .  S
C1303      C1304   1.406       .  A
C1303      C1308   1.409       .  A
C1303     Br1310   1.917       .  S
C1304      C1305   1.416       .  A
C1305      C1306   1.411       .  A
C1305     Br1312   1.947       .  S
C1306      C1307   1.422       .  A
C1306     Br1311   1.917       .  S
C1307      C1308   1.412       .  A
C1308     Br1309   1.914       .  S
C1313      C1314   1.420       .  A
C1313      C1318   1.410       .  A
C1313     Br1320   1.939       .  S
C1314      C1315   1.418       .  A
C1315      C1316   1.416       .  A
C1315     Br1322   1.936       .  S
C1316      C1317   1.424       .  A
C1316     Br1321   1.940       .  S
C1317      C1318   1.411       .  A
C1318     Br1319   1.927       .  S
C1323      C1324   1.402       .  A
C1323      C1328   1.402       .  A
C1323     Br1330   1.926       .  S
C1324      C1325   1.410       .  A
C1325      C1326   1.421       .  A
C1325     Br1332   1.925       .  S
C1326      C1327   1.422       .  A
C1326     Br1331   1.925       .  S
C1327      C1328   1.418       .  A
C1328     Br1329   1.914       .  S
C1333      C1334   1.405       .  A
C1333      C1338   1.405       .  A
C1333     Br1340   1.923       .  S
C1334      C1335   1.406       .  A
C1335      C1336   1.398       .  A
C1335     Br1342   1.926       .  S
C1336      C1337   1.403       .  A
C1336     Br1341   1.928       .  S
C1337      C1338   1.406       .  A
C1338     Br1339   1.925       .  S
C1343      C1344   1.407       .  A
C1343      C1348   1.416       .  A
C1343     Br1350   1.919       .  S
C1344      C1345   1.397       .  A
C1345      C1346   1.404       .  A
C1345     Br1352   1.905       .  S
C1346      C1347   1.408       .  A
C1346     Br1351   1.901       .  S
C1347      C1348   1.415       .  A
C1348     Br1349   1.908       .  S
C1353      C1354   1.410       .  A
C1353      C1358   1.392       .  A
C1353     Br1360   1.898       .  S
C1354      C1355   1.429       .  A
C1355      C1356   1.423       .  A
C1355     Br1362   1.925       .  S
C1356      C1357   1.405       .  A
C1356     Br1361   1.922       .  S
C1357      C1358   1.393       .  A
C1358     Br1359   1.909       .  S
C1363      C1364   1.417       .  A
C1363      C1368   1.413       .  A
C1363     Br1370   1.926       .  S
C1364      C1365   1.423       .  A
C1365      C1366   1.401       .  A
C1365     Br1372   1.935       .  S
C1366      C1367   1.407       .  A
C1366     Br1371   1.934       .  S
C1367      C1368   1.411       .  A
C1368     Br1369   1.930       .  S
C1373      C1374   1.413       .  A
C1373      C1378   1.411       .  A
C1373     Br1380   1.926       .  S
C1374      C1375   1.405       .  A
C1375      C1376   1.413       .  A
C1375     Br1382   1.922       .  S
C1376      C1377   1.415       .  A
C1376     Br1381   1.928       .  S
C1377      C1378   1.399       .  A
C1378     Br1379   1.916       .  S
C1383      C1384   1.410       .  A
C1383      C1388   1.374       .  A
C1383     Br1390   1.922       .  S
C1384      C1385   1.433       .  A
C1385      C1386   1.431       .  A
C1385     Br1392   1.930       .  S
C1386      C1387   1.418       .  A
C1386     Br1391   1.927       .  S
C1387      C1388   1.382       .  A
C1388     Br1389   1.870       .  S
C1393      C1394   1.406       .  A
C1393      C1398   1.402       .  A
C1393     Br1400   1.916       .  S
C1394      C1395   1.415       .  A
C1395      C1396   1.406       .  A
C1395     Br1402   1.924       .  S
C1396      C1397   1.394       .  A
C1396     Br1401   1.928       .  S
C1397      C1398   1.395       .  A
C1398     Br1399   1.924       .  S
C1403      C1404   1.415       .  A
C1403      C1408   1.414       .  A
C1403     Br1410   1.927       .  S
C1404      C1405   1.406       .  A
C1405      C1406   1.409       .  A
C1405     Br1412   1.931       .  S
C1406      C1407   1.420       .  A
C1406     Br1411   1.929       .  S
C1407      C1408   1.407       .  A
C1408     Br1409   1.926       .  S
C1413      C1414   1.408       .  A
C1413      C1418   1.410       .  A
C1413     Br1420   1.930       .  S
C1414      C1415   1.407       .  A
C1415      C1416   1.406       .  A
C1415     Br1422   1.925       .  S
C1416      C1417   1.413       .  A
C1416     Br1421   1.924       .  S
C1417      C1418   1.424       .  A
C1418     Br1419   1.928       .  S
C1423      C1424   1.409       .  A
C1423      C1428   1.415       .  A
C1423     Br1430   1.931       .  S
C1424      C1425   1.417       .  A
C1425      C1426   1.415       .  A
C1425     Br1432   1.930       .  S
C1426      C1427   1.409       .  A
C1426     Br1431   1.923       .  S
C1427      C1428   1.422       .  A
C1428     Br1429   1.927       .  S
C1433      C1434   1.409       .  A
C1433      C1438   1.393       .  A
C1433     Br1440   1.936       .  S
C1434      C1435   1.408       .  A
C1435      C1436   1.404       .  A
C1435     Br1442   1.929       .  S
C1436      C1437   1.408   1_556  A
C1436     Br1441   1.928   1_556  S
C1437      C1438   1.406   1_554  A
C1438     Br1439   1.934   1_556  S
C1443      C1444   1.435       .  A
C1443      C1448   1.428       .  A
C1443     Br1450   1.929       .  S
C1444      C1445   1.416       .  A
C1445      C1446   1.407       .  A
C1445     Br1452   1.898       .  S
C1446      C1447   1.396       .  A
C1446     Br1451   1.917       .  S
C1447      C1448   1.406       .  A
C1448     Br1449   1.923       .  S
C1453      C1454   1.391       .  A
C1453      C1458   1.407       .  A
C1453     Br1460   1.925       .  S
C1454      C1455   1.406       .  A
C1455      C1456   1.413       .  A
C1455     Br1462   1.917       .  S
C1456      C1457   1.405       .  A
C1456     Br1461   1.921       .  S
C1457      C1458   1.416       .  A
C1458     Br1459   1.910       .  S
C1463      C1464   1.412       .  A
C1463      C1468   1.414       .  A
C1463     Br1470   1.930       .  S
C1464      C1465   1.429       .  A
C1465      C1466   1.409       .  A
C1465     Br1472   1.932       .  S
C1466      C1467   1.407       .  A
C1466     Br1471   1.936       .  S
C1467      C1468   1.420       .  A
C1468     Br1469   1.931       .  S
C1473      C1474   1.407       .  A
C1473      C1478   1.423       .  A
C1473     Br1480   1.917       .  S
C1474      C1475   1.414       .  A
C1475      C1476   1.425       .  A
C1475     Br1482   1.923       .  S
C1476      C1477   1.413       .  A
C1476     Br1481   1.920       .  S
C1477      C1478   1.420       .  A
C1478     Br1479   1.926       .  S
C1483      C1484   1.399       .  A
C1483      C1488   1.418       .  A
C1483     Br1490   1.920       .  S
C1484      C1485   1.398       .  A
C1485      C1486   1.409       .  A
C1485     Br1492   1.920       .  S
C1486      C1487   1.410       .  A
C1486     Br1491   1.910       .  S
C1487      C1488   1.423       .  A
C1488     Br1489   1.917       .  S
C1493      C1494   1.419       .  A
C1493      C1498   1.410       .  A
C1493     Br1500   1.924       .  S
C1494      C1495   1.417       .  A
C1495      C1496   1.416       .  A
C1495     Br1502   1.932       .  S
C1496      C1497   1.416       .  A
C1496     Br1501   1.930       .  S
C1497      C1498   1.412       .  A
C1498     Br1499   1.934       .  S
C1503      C1504   1.397       .  A
C1503      C1508   1.395       .  A
C1503     Br1510   1.910       .  S
C1504      C1505   1.396       .  A
C1505      C1506   1.397       .  A
C1505     Br1512   1.911       .  S
C1506      C1507   1.412       .  A
C1506     Br1511   1.918       .  S
C1507      C1508   1.404       .  A
C1508     Br1509   1.904       .  S
C1513      C1514   1.405       .  A
C1513      C1518   1.410       .  A
C1513     Br1520   1.918       .  S
C1514      C1515   1.408       .  A
C1515      C1516   1.416       .  A
C1515     Br1522   1.918       .  S
C1516      C1517   1.410       .  A
C1516     Br1521   1.925       .  S
C1517      C1518   1.412       .  A
C1518     Br1519   1.923       .  S
C1523      C1524   1.434       .  A
C1523      C1528   1.411       .  A
C1523     Br1530   1.938       .  S
C1524      C1525   1.430       .  A
C1525      C1526   1.414       .  A
C1525     Br1532   1.925       .  S
C1526      C1527   1.411       .  A
C1526     Br1531   1.941       .  S
C1527      C1528   1.404       .  A
C1528     Br1529   1.936       .  S
C1533      C1534   1.410       .  A
C1533      C1538   1.426       .  A
C1533     Br1540   1.921       .  S
C1534      C1535   1.398       .  A
C1535      C1536   1.405       .  A
C1535     Br1542   1.916       .  S
C1536      C1537   1.414       .  A
C1536     Br1541   1.901       .  S
C1537      C1538   1.423       .  A
C1538     Br1539   1.927       .  S
C1543      C1544   1.410       .  A
C1543      C1548   1.413       .  A
C1543     Br1550   1.912       .  S
C1544      C1545   1.414       .  A
C1545      C1546   1.406       .  A
C1545     Br1552   1.924       .  S
C1546      C1547   1.412       .  A
C1546     Br1551   1.928       .  S
C1547      C1548   1.407       .  A
C1548     Br1549   1.920       .  S
C1553      C1554   1.440       .  A
C1553      C1558   1.414       .  A
C1553     Br1560   1.943       .  S
C1554      C1555   1.426       .  A
C1555      C1556   1.404       .  A
C1555     Br1562   1.918       .  S
C1556      C1557   1.403       .  A
C1556     Br1561   1.943       .  S
C1557      C1558   1.401       .  A
C1558     Br1559   1.937       .  S
C1563      C1564   1.418       .  A
C1563      C1568   1.398       .  A
C1563     Br1570   1.941       .  S
C1564      C1565   1.427       .  A
C1565      C1566   1.418       .  A
C1565     Br1572   1.930       .  S
C1566      C1567   1.419       .  A
C1566     Br1571   1.934       .  S
C1567      C1568   1.417       .  A
C1568     Br1569   1.928       .  S
C1573      C1574   1.383       .  A
C1573      C1578   1.393       .  A
C1573     Br1580   1.908       .  S
C1574      C1575   1.405   1_565  A
C1575      C1576   1.422       .  A
C1575     Br1582   1.919       .  S
C1576      C1577   1.426       .  A
C1576     Br1581   1.921       .  S
C1577      C1578   1.412   1_545  A
C1578     Br1579   1.890       .  S
C1583      C1584   1.425       .  A
C1583      C1588   1.400       .  A
C1583     Br1590   1.925       .  S
C1584      C1585   1.433       .  A
C1585      C1586   1.434       .  A
C1585     Br1592   1.927       .  S
C1586      C1587   1.415       .  A
C1586     Br1591   1.927       .  S
C1587      C1588   1.400       .  A
C1588     Br1589   1.908       .  S
C1593      C1594   1.406       .  A
C1593      C1598   1.404       .  A
C1593     Br1600   1.915       .  S
C1594      C1595   1.426       .  A
C1595      C1596   1.409       .  A
C1595     Br1602   1.941       .  S
C1596      C1597   1.413       .  A
C1596     Br1601   1.936       .  S
C1597      C1598   1.414       .  A
C1598     Br1599   1.936       .  S
C1603      C1604   1.421       .  A
C1603      C1608   1.400       .  A
C1603     Br1610   1.913       .  S
C1604      C1605   1.433       .  A
C1605      C1606   1.426       .  A
C1605     Br1612   1.933       .  S
C1606      C1607   1.409       .  A
C1606     Br1611   1.929       .  S
C1607      C1608   1.396       .  A
C1608     Br1609   1.918       .  S
C1613      C1614   1.417       .  A
C1613      C1618   1.413       .  A
C1613     Br1620   1.918       .  S
C1614      C1615   1.423       .  A
C1615      C1616   1.420       .  A
C1615     Br1622   1.930       .  S
C1616      C1617   1.417       .  A
C1616     Br1621   1.932       .  S
C1617      C1618   1.418       .  A
C1618     Br1619   1.933       .  S
C1623      C1624   1.413       .  A
C1623      C1628   1.418       .  A
C1623     Br1630   1.920       .  S
C1624      C1625   1.412       .  A
C1625      C1626   1.411       .  A
C1625     Br1632   1.944       .  S
C1626      C1627   1.422   1_556  A
C1626     Br1631   1.911   1_556  S
C1627      C1628   1.416   1_554  A
C1628     Br1629   1.924   1_556  S
C1633      C1634   1.406       .  A
C1633      C1638   1.402       .  A
C1633     Br1640   1.917       .  S
C1634      C1635   1.425       .  A
C1635      C1636   1.414       .  A
C1635     Br1642   1.928       .  S
C1636      C1637   1.412       .  A
C1636     Br1641   1.937       .  S
C1637      C1638   1.416       .  A
C1638     Br1639   1.936       .  S
C1643      C1644   1.432       .  A
C1643      C1648   1.438       .  A
C1643     Br1650   1.927       .  S
C1644      C1645   1.409       .  A
C1645      C1646   1.386       .  A
C1645     Br1652   1.935       .  S
C1646      C1647   1.419       .  A
C1646     Br1651   1.923       .  S
C1647      C1648   1.426       .  A
C1648     Br1649   1.928       .  S
C1653      C1654   1.416       .  A
C1653      C1658   1.392       .  A
C1653     Br1660   1.938       .  S
C1654      C1655   1.429       .  A
C1655      C1656   1.429       .  A
C1655     Br1662   1.925       .  S
C1656      C1657   1.422       .  A
C1656     Br1661   1.930       .  S
C1657      C1658   1.415       .  A
C1658     Br1659   1.923       .  S
C1663      C1664   1.403       .  A
C1663      C1668   1.425   1_545  A
C1663     Br1670   1.927   1_545  S
C1664      C1665   1.382       .  A
C1665      C1666   1.395       .  A
C1665     Br1672   1.906       .  S
C1666      C1667   1.415   1_545  A
C1666     Br1671   1.890       .  S
C1667      C1668   1.429       .  A
C1668     Br1669   1.919       .  S
C1673      C1674   1.409       .  A
C1673      C1678   1.402       .  A
C1673     Br1680   1.935       .  S
C1674      C1675   1.410       .  A
C1675      C1676   1.414       .  A
C1675     Br1682   1.937       .  S
C1676      C1677   1.432       .  A
C1676     Br1681   1.939       .  S
C1677      C1678   1.413       .  A
C1678     Br1679   1.919       .  S
C1683      C1684   1.420       .  A
C1683      C1688   1.416       .  A
C1683     Br1690   1.933       .  S
C1684      C1685   1.416       .  A
C1685      C1686   1.406       .  A
C1685     Br1692   1.936       .  S
C1686      C1687   1.405       .  A
C1686     Br1691   1.910       .  S
C1687      C1688   1.418       .  A
C1688     Br1689   1.932       .  S
C1693      C1694   1.405       .  A
C1693      C1698   1.407       .  A
C1693     Br1700   1.920       .  S
C1694      C1695   1.404       .  A
C1695      C1696   1.399       .  A
C1695     Br1702   1.922       .  S
C1696      C1697   1.401       .  A
C1696     Br1701   1.916       .  S
C1697      C1698   1.405       .  A
C1698     Br1699   1.921   1_545  S
C1703      C1704   1.409       .  A
C1703      C1708   1.416   1_545  A
C1703     Br1710   1.916       .  S
C1704      C1705   1.410   1_545  A
C1705      C1706   1.412       .  A
C1705     Br1712   1.917       .  S
C1706      C1707   1.405       .  A
C1706     Br1711   1.924       .  S
C1707      C1708   1.406       .  A
C1708     Br1709   1.928       .  S
C1713      C1714   1.399       .  A
C1713      C1718   1.413       .  A
C1713     Br1720   1.920       .  S
C1714      C1715   1.411       .  A
C1715      C1716   1.418       .  A
C1715     Br1722   1.925       .  S
C1716      C1717   1.411       .  A
C1716     Br1721   1.918       .  S
C1717      C1718   1.419       .  A
C1718     Br1719   1.912       .  S
C1723      C1724   1.420       .  A
C1723      C1728   1.407       .  A
C1723     Br1730   1.918       .  S
C1724      C1725   1.412       .  A
C1725      C1726   1.415       .  A
C1725     Br1732   1.933       .  S
C1726      C1727   1.423       .  A
C1726     Br1731   1.928       .  S
C1727      C1728   1.407       .  A
C1728     Br1729   1.934       .  S
C1733      C1734   1.399       .  A
C1733      C1738   1.407       .  A
C1733     Br1740   1.910       .  S
C1734      C1735   1.414   1_565  A
C1735      C1736   1.427       .  A
C1735     Br1742   1.921       .  S
C1736      C1737   1.422       .  A
C1736     Br1741   1.915       .  S
C1737      C1738   1.408   1_545  A
C1738     Br1739   1.897       .  S
C1743      C1744   1.388       .  A
C1743      C1748   1.399       .  A
C1743     Br1750   1.914       .  S
C1744      C1745   1.400       .  A
C1745      C1746   1.420       .  A
C1745     Br1752   1.923       .  S
C1746      C1747   1.429       .  A
C1746     Br1751   1.923       .  S
C1747      C1748   1.414       .  A
C1748     Br1749   1.891       .  S
C1753      C1754   1.417       .  A
C1753      C1758   1.417       .  A
C1753     Br1760   1.935       .  S
C1754      C1755   1.382   1_565  A
C1755      C1756   1.373       .  A
C1755     Br1762   1.884       .  S
C1756      C1757   1.409       .  A
C1756     Br1761   1.920       .  S
C1757      C1758   1.430   1_545  A
C1758     Br1759   1.935       .  S
C1763      C1764   1.407       .  A
C1763      C1768   1.399       .  A
C1763     Br1770   1.940       .  S
C1764      C1765   1.404       .  A
C1765      C1766   1.415       .  A
C1765     Br1772   1.937       .  S
C1766      C1767   1.439       .  A
C1766     Br1771   1.943       .  S
C1767      C1768   1.416       .  A
C1768     Br1769   1.921       .  S
C1773      C1774   1.415       .  A
C1773      C1778   1.413       .  A
C1773     Br1780   1.931       .  S
C1774      C1775   1.410       .  A
C1775      C1776   1.408       .  A
C1775     Br1782   1.936       .  S
C1776      C1777   1.423       .  A
C1776     Br1781   1.933       .  S
C1777      C1778   1.417       .  A
C1778     Br1779   1.932       .  S
C1783      C1784   1.409       .  A
C1783      C1788   1.403       .  A
C1783     Br1790   1.944       .  S
C1784      C1785   1.406       .  A
C1785      C1786   1.417       .  A
C1785     Br1792   1.935       .  S
C1786      C1787   1.433       .  A
C1786     Br1791   1.929       .  S
C1787      C1788   1.417       .  A
C1788     Br1789   1.908       .  S
C1793      C1794   1.405       .  A
C1793      C1798   1.400   1_556  A
C1793     Br1800   1.928       .  S
C1794      C1795   1.407       .  A
C1795      C1796   1.405   1_556  A
C1795     Br1802   1.925       .  S
C1796      C1797   1.405       .  A
C1796     Br1801   1.925       .  S
C1797      C1798   1.405       .  A
C1798     Br1799   1.928       .  S
C1803      C1804   1.410   1_565  A
C1803      C1808   1.417   1_565  A
C1803     Br1810   1.917       .  S
C1804      C1805   1.417       .  A
C1805      C1806   1.415       .  A
C1805     Br1812   1.909       .  S
C1806      C1807   1.399       .  A
C1806     Br1811   1.929       .  S
C1807      C1808   1.407       .  A
C1808     Br1809   1.926       .  S
C1813      C1814   1.410       .  A
C1813      C1818   1.417       .  A
C1813     Br1820   1.919       .  S
C1814      C1815   1.421       .  A
C1815      C1816   1.419       .  A
C1815     Br1822   1.927       .  S
C1816      C1817   1.404       .  A
C1816     Br1821   1.922       .  S
C1817      C1818   1.413       .  A
C1818     Br1819   1.928       .  S
C1823      C1824   1.419       .  A
C1823      C1828   1.416       .  A
C1823     Br1830   1.932       .  S
C1824      C1825   1.423       .  A
C1825      C1826   1.413       .  A
C1825     Br1832   1.922       .  S
C1826      C1827   1.410       .  A
C1826     Br1831   1.936       .  S
C1827      C1828   1.413       .  A
C1828     Br1829   1.929       .  S
C1833      C1834   1.398       .  A
C1833      C1838   1.406   1_565  A
C1833     Br1840   1.904       .  S
C1834      C1835   1.410       .  A
C1835      C1836   1.422       .  A
C1835     Br1842   1.919       .  S
C1836      C1837   1.421   1_565  A
C1836     Br1841   1.912       .  S
C1837      C1838   1.406       .  A
C1838     Br1839   1.909       .  S
C1843      C1844   1.396       .  A
C1843      C1848   1.421       .  A
C1843     Br1850   1.925       .  S
C1844      C1845   1.393       .  A
C1845      C1846   1.407       .  A
C1845     Br1852   1.915       .  S
C1846      C1847   1.418       .  A
C1846     Br1851   1.896       .  S
C1847      C1848   1.431       .  A
C1848     Br1849   1.907       .  S
C1853      C1854   1.415       .  A
C1853      C1858   1.415       .  A
C1853     Br1860   1.930       .  S
C1854      C1855   1.421       .  A
C1855      C1856   1.401       .  A
C1855     Br1862   1.927       .  S
C1856      C1857   1.405       .  A
C1856     Br1861   1.937       .  S
C1857      C1858   1.414       .  A
C1858     Br1859   1.930       .  S
C1863      C1864   1.384   1_565  A
C1863      C1868   1.377       .  A
C1863     Br1870   1.887       .  S
C1864      C1865   1.419       .  A
C1865      C1866   1.411       .  A
C1865     Br1872   1.937       .  S
C1866      C1867   1.421   1_545  A
C1866     Br1871   1.931       .  S
C1867      C1868   1.411       .  A
C1868     Br1869   1.922       .  S
C1873      C1874   1.429       .  A
C1873      C1878   1.434       .  A
C1873     Br1880   1.931       .  S
C1874      C1875   1.429       .  A
C1875      C1876   1.433       .  A
C1875     Br1882   1.922       .  S
C1876      C1877   1.426       .  A
C1876     Br1881   1.941       .  S
C1877      C1878   1.433       .  A
C1878     Br1879   1.928       .  S
C1883      C1884   1.403       .  A
C1883      C1888   1.348       .  A
C1883     Br1890   1.900   1_545  S
C1884      C1885   1.441       .  A
C1885      C1886   1.472       .  A
C1885     Br1892   1.929       .  S
C1886      C1887   1.455       .  A
C1886     Br1891   1.920       .  S
C1887      C1888   1.406       .  A
C1888     Br1889   1.880   1_545  S
C1893      C1894   1.431       .  A
C1893      C1898   1.426       .  A
C1893     Br1900   1.913       .  S
C1894      C1895   1.453       .  A
C1895      C1896   1.421       .  A
C1895     Br1902   1.927       .  S
C1896      C1897   1.405       .  A
C1896     Br1901   1.928       .  S
C1897      C1898   1.422       .  A
C1898     Br1899   1.926       .  S
C1903      C1904   1.416   1_545  A
C1903      C1908   1.433       .  A
C1903     Br1910   1.934       .  S
C1904      C1905   1.497       .  A
C1905      C1906   1.482       .  A
C1905     Br1912   1.919       .  S
C1906      C1907   1.431   1_565  A
C1906     Br1911   1.921       .  S
C1907      C1908   1.457       .  A
C1908     Br1909   1.907       .  S
C1913      C1914   1.483       .  A
C1913      C1918   1.466       .  A
C1913     Br1920   1.918       .  S
C1914      C1915   1.444   1_565  A
C1915      C1916   1.437       .  A
C1915     Br1922   1.935       .  S
C1916      C1917   1.449       .  A
C1916     Br1921   1.943       .  S
C1917      C1918   1.427   1_545  A
C1918     Br1919   1.924       .  S
C1923      C1924   1.454       .  A
C1923      C1928   1.473       .  A
C1923     Br1930   1.928       .  S
C1924      C1925   1.452       .  A
C1925      C1926   1.437   1_565  A
C1925     Br1932   1.936   1_565  S
C1926      C1927   1.443       .  A
C1926     Br1931   1.945       .  S
C1927      C1928   1.454   1_545  A
C1928     Br1929   1.915       .  S
C1933      C1934   1.435       .  A
C1933      C1938   1.474       .  A
C1933     Br1940   1.936       .  S
C1934      C1935   1.415       .  A
C1935      C1936   1.416   1_565  A
C1935     Br1942   1.932       .  S
C1936      C1937   1.453       .  A
C1936     Br1941   1.928       .  S
C1937      C1938   1.466   1_545  A
C1938     Br1939   1.906       .  S
C1943      C1944   1.473       .  A
C1943      C1948   1.472       .  A
C1943     Br1950   1.917       .  S
C1944      C1945   1.472       .  A
C1945      C1946   1.477       .  A
C1945     Br1952   1.913       .  S
C1946      C1947   1.431       .  A
C1946     Br1951   1.942       .  S
C1947      C1948   1.425       .  A
C1948     Br1949   1.943       .  S
C1953      C1954   1.421       .  A
C1953      C1958   1.472       .  A
C1953     Br1960   1.940       .  S
C1954      C1955   1.421       .  A
C1955      C1956   1.435       .  A
C1955     Br1962   1.940       .  S
C1956      C1957   1.455       .  A
C1956     Br1961   1.929       .  S
C1957      C1958   1.461       .  A
C1958     Br1959   1.927       .  S
C1963      C1964   1.418       .  A
C1963      C1968   1.412       .  A
C1963     Br1970   1.917       .  S
C1964      C1965   1.416       .  A
C1965      C1966   1.431       .  A
C1965     Br1972   1.934       .  S
C1966      C1967   1.471       .  A
C1966     Br1971   1.942       .  S
C1967      C1968   1.424       .  A
C1968     Br1969   1.913       .  S
C1973      C1974   1.462       .  A
C1973      C1978   1.500   1_565  A
C1973     Br1980   1.934       .  S
C1974      C1975   1.390       .  A
C1975      C1976   1.392       .  A
C1975     Br1982   1.936       .  S
C1976      C1977   1.395   1_565  A
C1976     Br1981   1.776       .  S
C1977      C1978   1.456       .  A
C1978     Br1979   1.925       .  S
C1983      C1984   1.457       .  A
C1983      C1988   1.450   1_565  A
C1983     Br1990   1.919       .  S
C1984      C1985   1.452   1_565  A
C1985      C1986   1.438       .  A
C1985     Br1992   1.937       .  S
C1986      C1987   1.402       .  A
C1986     Br1991   1.941       .  S
C1987      C1988   1.426       .  A
C1988     Br1989   1.931       .  S
C1993      C1994   1.411       .  A
C1993      C1998   1.440       .  A
C1993     Br2000   1.934       .  S
C1994      C1995   1.423       .  A
C1995      C1996   1.451   1_565  A
C1995     Br2002   1.927       .  S
C1996      C1997   1.437       .  A
C1996     Br2001   1.927       .  S
C1997      C1998   1.464   1_545  A
C1998     Br1999   1.939       .  S
C2003      C2004   1.506       .  A
C2003      C2008   1.532   1_565  A
C2003     Br2010   1.920       .  S
C2004      C2005   1.371   1_565  A
C2005      C2006   1.400       .  A
C2005     Br2012   1.964       .  S
C2006      C2007   1.325       .  A
C2006     Br2011   1.900   1_545  S
C2007      C2008   1.505       .  A
C2008     Br2009   1.920       .  S
C2013      C2014   1.453       .  A
C2013      C2018   1.464       .  A
C2013     Br2020   1.927       .  S
C2014      C2015   1.456       .  A
C2015      C2016   1.488       .  A
C2015     Br2022   1.923       .  S
C2016      C2017   1.442       .  A
C2016     Br2021   1.924       .  S
C2017      C2018   1.440       .  A
C2018     Br2019   1.926       .  S
C2023      C2024   1.440       .  A
C2023      C2028   1.421       .  A
C2023     Br2030   1.929       .  S
C2024      C2025   1.430       .  A
C2025      C2026   1.427       .  A
C2025     Br2032   1.914       .  S
C2026      C2027   1.429       .  A
C2026     Br2031   1.930       .  S
C2027      C2028   1.421       .  A
C2028     Br2029   1.934       .  S
C2033      C2034   1.419       .  A
C2033      C2038   1.423   1_556  A
C2033     Br2040   1.925       .  S
C2034      C2035   1.420       .  A
C2035      C2036   1.421   1_556  A
C2035     Br2042   1.920       .  S
C2036      C2037   1.413       .  A
C2036     Br2041   1.930       .  S
C2037      C2038   1.415       .  A
C2038     Br2039   1.925       .  S
C2043      C2044   1.406       .  A
C2043      C2048   1.410       .  A
C2043     Br2050   1.929       .  S
C2044      C2045   1.414       .  A
C2045      C2046   1.424       .  A
C2045     Br2052   1.937       .  S
C2046      C2047   1.444       .  A
C2046     Br2051   1.920       .  S
C2047      C2048   1.444       .  A
C2048     Br2049   1.934       .  S
C2053      C2054   1.411       .  A
C2053      C2058   1.406       .  A
C2053     Br2060   1.930       .  S
C2054      C2055   1.427       .  A
C2055      C2056   1.449       .  A
C2055     Br2062   1.933       .  S
C2056      C2057   1.448       .  A
C2056     Br2061   1.920       .  S
C2057      C2058   1.426       .  A
C2058     Br2059   1.919       .  S
C2063      C2064   1.424       .  A
C2063      C2068   1.428       .  A
C2063     Br2070   1.927       .  S
C2064      C2065   1.412       .  A
C2065      C2066   1.402       .  A
C2065     Br2072   1.902       .  S
C2066      C2067   1.396       .  A
C2066     Br2071   1.912       .  S
C2067      C2068   1.411       .  A
C2068     Br2069   1.924       .  S
C2073      C2074   1.411       .  A
C2073      C2078   1.411       .  A
C2073     Br2080   1.921       .  S
C2074      C2075   1.430       .  A
C2075      C2076   1.420       .  A
C2075     Br2082   1.938       .  S
C2076      C2077   1.416       .  A
C2076     Br2081   1.935       .  S
C2077      C2078   1.419       .  A
C2078     Br2079   1.934       .  S
C2083      C2084   1.421       .  A
C2083      C2088   1.424       .  A
C2083     Br2090   1.921       .  S
C2084      C2085   1.423       .  A
C2085      C2086   1.428   1_556  A
C2085     Br2092   1.930       .  S
C2086      C2087   1.423       .  A
C2086     Br2091   1.929       .  S
C2087      C2088   1.417   1_554  A
C2088     Br2089   1.921   1_556  S
C2093      C2094   1.403       .  A
C2093      C2098   1.421       .  A
C2093     Br2100   1.945       .  S
C2094      C2095   1.421       .  A
C2095      C2096   1.436       .  A
C2095     Br2102   1.935       .  S
C2096      C2097   1.442       .  A
C2096     Br2101   1.922       .  S
C2097      C2098   1.453       .  A
C2098     Br2099   1.925       .  S
C2103      C2104   1.413       .  A
C2103      C2108   1.417       .  A
C2103     Br2110   1.927       .  S
C2104      C2105   1.404       .  A
C2105      C2106   1.402       .  A
C2105     Br2112   1.909       .  S
C2106      C2107   1.405       .  A
C2106     Br2111   1.920       .  S
C2107      C2108   1.412       .  A
C2108     Br2109   1.927       .  S
C2113      C2114   1.414       .  A
C2113      C2118   1.414       .  A
C2113     Br2120   1.923       .  S
C2114      C2115   1.426       .  A
C2115      C2116   1.423       .  A
C2115     Br2122   1.935       .  S
C2116      C2117   1.418       .  A
C2116     Br2121   1.933       .  S
C2117      C2118   1.421       .  A
C2118     Br2119   1.937       .  S
C2123      C2124   1.398       .  A
C2123      C2128   1.411       .  A
C2123     Br2130   1.936       .  S
C2124      C2125   1.399       .  A
C2125      C2126   1.420       .  A
C2125     Br2132   1.939       .  S
C2126      C2127   1.465       .  A
C2126     Br2131   1.940       .  S
C2127      C2128   1.458       .  A
C2128     Br2129   1.943       .  S
C2133      C2134   1.421       .  A
C2133      C2138   1.421       .  A
C2133     Br2140   1.929       .  S
C2134      C2135   1.411       .  A
C2135      C2136   1.403       .  A
C2135     Br2142   1.907       .  S
C2136      C2137   1.399       .  A
C2136     Br2141   1.917       .  S
C2137      C2138   1.410       .  A
C2138     Br2139   1.928       .  S
C2143      C2144   1.413       .  A
C2143      C2148   1.410       .  A
C2143     Br2150   1.919       .  S
C2144      C2145   1.428       .  A
C2145      C2146   1.423       .  A
C2145     Br2152   1.927       .  S
C2146      C2147   1.414       .  A
C2146     Br2151   1.932       .  S
C2147      C2148   1.414       .  A
C2148     Br2149   1.932       .  S
C2153      C2154   1.416       .  A
C2153      C2158   1.416       .  A
C2153     Br2160   1.909       .  S
C2154      C2155   1.422       .  A
C2155      C2156   1.423       .  A
C2155     Br2162   1.926       .  S
C2156      C2157   1.421       .  A
C2156     Br2161   1.937       .  S
C2157      C2158   1.410       .  A
C2158     Br2159   1.922       .  S
C2163      C2164   1.440       .  A
C2163      C2168   1.425       .  A
C2163     Br2170   1.907       .  S
C2164      C2165   1.456       .  A
C2165      C2166   1.418       .  A
C2165     Br2172   1.948   1_545  S
C2166      C2167   1.407       .  A
C2166     Br2171   1.944       .  S
C2167      C2168   1.408       .  A
C2168     Br2169   1.938       .  S
C2173      C2174   1.417       .  A
C2173      C2178   1.424       .  A
C2173     Br2180   1.928       .  S
C2174      C2175   1.401       .  A
C2175      C2176   1.404       .  A
C2175     Br2182   1.911       .  S
C2176      C2177   1.410       .  A
C2176     Br2181   1.903       .  S
C2177      C2178   1.419       .  A
C2178     Br2179   1.929       .  S
C2183      C2184   1.404       .  A
C2183      C2188   1.402       .  A
C2183     Br2190   1.920       .  S
C2184      C2185   1.424       .  A
C2185      C2186   1.420       .  A
C2185     Br2192   1.934       .  S
C2186      C2187   1.415       .  A
C2186     Br2191   1.931       .  S
C2187      C2188   1.415       .  A
C2188     Br2189   1.928       .  S
C2193      C2194   1.404       .  A
C2193      C2198   1.411       .  A
C2193     Br2200   1.911       .  S
C2194      C2195   1.415       .  A
C2195      C2196   1.432       .  A
C2195     Br2202   1.925       .  S
C2196      C2197   1.423       .  A
C2196     Br2201   1.926       .  S
C2197      C2198   1.412       .  A
C2198     Br2199   1.907       .  S
C2203      C2204   1.421       .  A
C2203      C2208   1.425       .  A
C2203     Br2210   1.928       .  S
C2204      C2205   1.411       .  A
C2205      C2206   1.411       .  A
C2205     Br2212   1.912       .  S
C2206      C2207   1.407       .  A
C2206     Br2211   1.917       .  S
C2207      C2208   1.410       .  A
C2208     Br2209   1.925       .  S
C2213      C2214   1.410       .  A
C2213      C2218   1.408       .  A
C2213     Br2220   1.922       .  S
C2214      C2215   1.411       .  A
C2215      C2216   1.420       .  A
C2215     Br2222   1.916       .  S
C2216      C2217   1.415       .  A
C2216     Br2221   1.912       .  S
C2217      C2218   1.414       .  A
C2218     Br2219   1.913       .  S
C2223      C2224   1.433       .  A
C2223      C2228   1.435       .  A
C2223     Br2230   1.931       .  S
C2224      C2225   1.407       .  A
C2225      C2226   1.397       .  A
C2225     Br2232   1.942       .  S
C2226      C2227   1.427       .  A
C2226     Br2231   1.919       .  S
C2227      C2228   1.424       .  A
C2228     Br2229   1.930       .  S
C2233      C2234   1.408       .  A
C2233      C2238   1.415       .  A
C2233     Br2240   1.926       .  S
C2234      C2235   1.405       .  A
C2235      C2236   1.414   1_565  A
C2235     Br2242   1.917       .  S
C2236      C2237   1.412       .  A
C2236     Br2241   1.924       .  S
C2237      C2238   1.409   1_545  A
C2238     Br2239   1.913       .  S
C2243      C2244   1.426       .  A
C2243      C2248   1.435       .  A
C2243     Br2250   1.931       .  S
C2244      C2245   1.428       .  A
C2245      C2246   1.390       .  A
C2245     Br2252   1.939       .  S
C2246      C2247   1.403       .  A
C2246     Br2251   1.907       .  S
C2247      C2248   1.427       .  A
C2248     Br2249   1.925       .  S
C2253      C2254   1.414       .  A
C2253      C2258   1.418       .  A
C2253     Br2260   1.930       .  S
C2254      C2255   1.409       .  A
C2255      C2256   1.405       .  A
C2255     Br2262   1.917       .  S
C2256      C2257   1.407       .  A
C2256     Br2261   1.917       .  S
C2257      C2258   1.417       .  A
C2258     Br2259   1.930       .  S
C2263      C2264   1.417       .  A
C2263      C2268   1.416       .  A
C2263     Br2270   1.933       .  S
C2264      C2265   1.417       .  A
C2265      C2266   1.411       .  A
C2265     Br2272   1.931       .  S
C2266      C2267   1.421       .  A
C2266     Br2271   1.935       .  S
C2267      C2268   1.422       .  A
C2268     Br2269   1.934       .  S
C2273      C2274   1.415       .  A
C2273      C2278   1.408   1_556  A
C2273     Br2280   1.939       .  S
C2274      C2275   1.407       .  A
C2275      C2276   1.405   1_556  A
C2275     Br2282   1.922       .  S
C2276      C2277   1.413       .  A
C2276     Br2281   1.929       .  S
C2277      C2278   1.415       .  A
C2278     Br2279   1.922       .  S
C2283      C2284   1.425       .  A
C2283      C2288   1.409       .  A
C2283     Br2290   1.937       .  S
C2284      C2285   1.421       .  A
C2285      C2286   1.435       .  A
C2285     Br2292   1.935       .  S
C2286      C2287   1.435       .  A
C2286     Br2291   1.928       .  S
C2287      C2288   1.428       .  A
C2288     Br2289   1.948       .  S
C2293      C2294   1.410       .  A
C2293      C2298   1.382       .  A
C2293     Br2300   1.939       .  S
C2294      C2295   1.429       .  A
C2295      C2296   1.435       .  A
C2295     Br2302   1.926       .  S
C2296      C2297   1.423       .  A
C2296     Br2301   1.925       .  S
C2297      C2298   1.426       .  A
C2298     Br2299   1.942       .  S
C2303      C2304   1.421       .  A
C2303      C2308   1.387   1_565  A
C2303     Br2310   1.911       .  S
C2304      C2305   1.433       .  A
C2305      C2306   1.434       .  A
C2305     Br2312   1.923       .  S
C2306      C2307   1.414   1_565  A
C2306     Br2311   1.921       .  S
C2307      C2308   1.387       .  A
C2308     Br2309   1.902       .  S
C2313      C2314   1.413       .  A
C2313      C2318   1.412       .  A
C2313     Br2320   1.936       .  S
C2314      C2315   1.414       .  A
C2315      C2316   1.420       .  A
C2315     Br2322   1.934       .  S
C2316      C2317   1.424       .  A
C2316     Br2321   1.923       .  S
C2317      C2318   1.415       .  A
C2318     Br2319   1.920       .  S
C2323      C2324   1.425       .  A
C2323      C2328   1.416       .  A
C2323     Br2330   1.938       .  S
C2324      C2325   1.419       .  A
C2325      C2326   1.419       .  A
C2325     Br2332   1.936       .  S
C2326      C2327   1.424       .  A
C2326     Br2331   1.935       .  S
C2327      C2328   1.414       .  A
C2328     Br2329   1.930       .  S
C2333      C2334   1.410       .  A
C2333      C2338   1.398       .  A
C2333     Br2340   1.935       .  S
C2334      C2335   1.405       .  A
C2335      C2336   1.399       .  A
C2335     Br2342   1.922       .  S
C2336      C2337   1.403       .  A
C2336     Br2341   1.931       .  S
C2337      C2338   1.406       .  A
C2338     Br2339   1.936       .  S
C2343      C2344   1.399       .  A
C2343      C2348   1.370       .  A
C2343     Br2350   1.921       .  S
C2344      C2345   1.439       .  A
C2345      C2346   1.443   1_565  A
C2345     Br2352   1.924       .  S
C2346      C2347   1.428       .  A
C2346     Br2351   1.926       .  S
C2347      C2348   1.387   1_545  A
C2348     Br2349   1.878       .  S
C2353      C2354   1.407       .  A
C2353      C2358   1.409       .  A
C2353     Br2360   1.923       .  S
C2354      C2355   1.403       .  A
C2355      C2356   1.416       .  A
C2355     Br2362   1.925       .  S
C2356      C2357   1.416       .  A
C2356     Br2361   1.915       .  S
C2357      C2358   1.406       .  A
C2358     Br2359   1.918       .  S
C2363      C2364   1.428       .  A
C2363      C2368   1.409       .  A
C2363     Br2370   1.927       .  S
C2364      C2365   1.413       .  A
C2365      C2366   1.415       .  A
C2365     Br2372   1.925       .  S
C2366      C2367   1.419       .  A
C2366     Br2371   1.934       .  S
C2367      C2368   1.408       .  A
C2368     Br2369   1.934       .  S
C2373      C2374   1.416       .  A
C2373      C2378   1.422       .  A
C2373     Br2380   1.919       .  S
C2374      C2375   1.407       .  A
C2375      C2376   1.406       .  A
C2375     Br2382   1.901       .  S
C2376      C2377   1.404       .  A
C2376     Br2381   1.922       .  S
C2377      C2378   1.410       .  A
C2378     Br2379   1.925       .  S
C2383      C2384   1.410       .  A
C2383      C2388   1.411       .  A
C2383     Br2390   1.912       .  S
C2384      C2385   1.417       .  A
C2385      C2386   1.418       .  A
C2385     Br2392   1.928       .  S
C2386      C2387   1.405       .  A
C2386     Br2391   1.912   1_565  S
C2387      C2388   1.398       .  A
C2388     Br2389   1.920       .  S
C2393      C2394   1.392       .  A
C2393      C2398   1.394       .  A
C2393     Br2400   1.906       .  S
C2394      C2395   1.400       .  A
C2395      C2396   1.398       .  A
C2395     Br2402   1.932   1_565  S
C2396      C2397   1.415       .  A
C2396     Br2401   1.922       .  S
C2397      C2398   1.404       .  A
C2398     Br2399   1.910       .  S
C2403      C2404   1.414       .  A
C2403      C2408   1.412       .  A
C2403     Br2410   1.932       .  S
C2404      C2405   1.407       .  A
C2405      C2406   1.414       .  A
C2405     Br2412   1.934       .  S
C2406      C2407   1.424       .  A
C2406     Br2411   1.917       .  S
C2407      C2408   1.413       .  A
C2408     Br2409   1.921       .  S
C2413      C2414   1.424       .  A
C2413      C2418   1.410       .  A
C2413     Br2420   1.932   1_545  S
C2414      C2415   1.410       .  A
C2415      C2416   1.414       .  A
C2415     Br2422   1.928       .  S
C2416      C2417   1.419       .  A
C2416     Br2421   1.929       .  S
C2417      C2418   1.414       .  A
C2418     Br2419   1.934   1_545  S
C2423      C2424   1.420       .  A
C2423      C2428   1.416       .  A
C2423     Br2430   1.932       .  S
C2424      C2425   1.411       .  A
C2425      C2426   1.414       .  A
C2425     Br2432   1.931       .  S
C2426      C2427   1.423       .  A
C2426     Br2431   1.933       .  S
C2427      C2428   1.411       .  A
C2428     Br2429   1.927       .  S
C2433      C2434   1.410       .  A
C2433      C2438   1.406   1_556  A
C2433     Br2440   1.927   1_545  S
C2434      C2435   1.403       .  A
C2435      C2436   1.393   1_556  A
C2435     Br2442   1.932       .  S
C2436      C2437   1.407       .  A
C2436     Br2441   1.928       .  S
C2437      C2438   1.405       .  A
C2438     Br2439   1.925   1_545  S
C2443      C2444   1.417       .  A
C2443      C2448   1.423       .  A
C2443     Br2450   1.924       .  S
C2444      C2445   1.411       .  A
C2445      C2446   1.412   1_565  A
C2445     Br2452   1.906   1_565  S
C2446      C2447   1.405   1_545  A
C2446     Br2451   1.926       .  S
C2447      C2448   1.408       .  A
C2448     Br2449   1.923       .  S
C2453      C2454   1.438       .  A
C2453      C2458   1.446       .  A
C2453     Br2460   1.922       .  S
C2454      C2455   1.398       .  A
C2455      C2456   1.369       .  A
C2455     Br2462   1.909       .  S
C2456      C2457   1.386       .  A
C2456     Br2461   1.883       .  S
C2457      C2458   1.432       .  A
C2458     Br2459   1.923       .  S
C2463      C2464   1.418       .  A
C2463      C2468   1.420       .  A
C2463     Br2470   1.926       .  S
C2464      C2465   1.426       .  A
C2465      C2466   1.409       .  A
C2465     Br2472   1.933       .  S
C2466      C2467   1.407       .  A
C2466     Br2471   1.932       .  S
C2467      C2468   1.413       .  A
C2468     Br2469   1.928       .  S
C2473      C2474   1.414       .  A
C2473      C2478   1.425       .  A
C2473     Br2480   1.928       .  S
C2474      C2475   1.407   1_565  A
C2475      C2476   1.413       .  A
C2475     Br2482   1.909       .  S
C2476      C2477   1.410       .  A
C2476     Br2481   1.923       .  S
C2477      C2478   1.414   1_545  A
C2478     Br2479   1.919       .  S
C2483      C2484   1.384       .  A
C2483      C2488   1.388       .  A
C2483     Br2490   1.906       .  S
C2484      C2485   1.411       .  A
C2485      C2486   1.434       .  A
C2485     Br2492   1.923       .  S
C2486      C2487   1.432       .  A
C2486     Br2491   1.926       .  S
C2487      C2488   1.413       .  A
C2488     Br2489   1.881       .  S
C2493      C2494   1.430       .  A
C2493      C2498   1.412       .  A
C2493     Br2500   1.934       .  S
C2494      C2495   1.417       .  A
C2495      C2496   1.415       .  A
C2495     Br2502   1.929       .  S
C2496      C2497   1.415       .  A
C2496     Br2501   1.928       .  S
C2497      C2498   1.408       .  A
C2498     Br2499   1.936       .  S
C2503      C2504   1.401       .  A
C2503      C2508   1.401       .  A
C2503     Br2510   1.930       .  S
C2504      C2505   1.394       .  A
C2505      C2506   1.392       .  A
C2505     Br2512   1.908       .  S
C2506      C2507   1.401       .  A
C2506     Br2511   1.908       .  S
C2507      C2508   1.419       .  A
C2508     Br2509   1.930   1_565  S
C2513      C2514   1.414       .  A
C2513      C2518   1.416       .  A
C2513     Br2520   1.930       .  S
C2514      C2515   1.412       .  A
C2515      C2516   1.415       .  A
C2515     Br2522   1.922       .  S
C2516      C2517   1.410       .  A
C2516     Br2521   1.931       .  S
C2517      C2518   1.411       .  A
C2518     Br2519   1.918       .  S
C2523      C2524   1.424       .  A
C2523      C2528   1.410       .  A
C2523     Br2530   1.926       .  S
C2524      C2525   1.413       .  A
C2525      C2526   1.397       .  A
C2525     Br2532   1.921       .  S
C2526      C2527   1.401       .  A
C2526     Br2531   1.920       .  S
C2527      C2528   1.405       .  A
C2528     Br2529   1.932       .  S
C2533      C2534   1.411       .  A
C2533      C2538   1.413       .  A
C2533     Br2540   1.918       .  S
C2534      C2535   1.412       .  A
C2535      C2536   1.416       .  A
C2535     Br2542   1.928       .  S
C2536      C2537   1.412       .  A
C2536     Br2541   1.918       .  S
C2537      C2538   1.408       .  A
C2538     Br2539   1.931       .  S
C2543      C2544   1.417       .  A
C2543      C2548   1.407       .  A
C2543     Br2550   1.928       .  S
C2544      C2545   1.419       .  A
C2545      C2546   1.415       .  A
C2545     Br2552   1.932       .  S
C2546      C2547   1.415       .  A
C2546     Br2551   1.933       .  S
C2547      C2548   1.412       .  A
C2548     Br2549   1.930       .  S
C2553      C2554   1.416       .  A
C2553      C2558   1.400       .  A
C2553     Br2560   1.923       .  S
C2554      C2555   1.425       .  A
C2555      C2556   1.410       .  A
C2555     Br2562   1.926       .  S
C2556      C2557   1.405       .  A
C2556     Br2561   1.932       .  S
C2557      C2558   1.403       .  A
C2558     Br2559   1.921       .  S
C2563      C2564   1.411       .  A
C2563      C2568   1.395       .  A
C2563     Br2570   1.924       .  S
C2564      C2565   1.430       .  A
C2565      C2566   1.423       .  A
C2565     Br2572   1.932       .  S
C2566      C2567   1.417       .  A
C2566     Br2571   1.928       .  S
C2567      C2568   1.417       .  A
C2568     Br2569   1.933       .  S
C2573      C2574   1.408       .  A
C2573      C2578   1.413       .  A
C2573     Br2580   1.927       .  S
C2574      C2575   1.409       .  A
C2575      C2576   1.412       .  A
C2575     Br2582   1.914       .  S
C2576      C2577   1.403       .  A
C2576     Br2581   1.921       .  S
C2577      C2578   1.408       .  A
C2578     Br2579   1.915       .  S
C2583      C2584   1.420       .  A
C2583      C2588   1.396       .  A
C2583     Br2590   1.948       .  S
C2584      C2585   1.427       .  A
C2585      C2586   1.433       .  A
C2585     Br2592   1.930       .  S
C2586      C2587   1.426       .  A
C2586     Br2591   1.925       .  S
C2587      C2588   1.426       .  A
C2588     Br2589   1.942       .  S
C2593      C2594   1.414       .  A
C2593      C2598   1.436       .  A
C2593     Br2600   1.925       .  S
C2594      C2595   1.382       .  A
C2595      C2596   1.375       .  A
C2595     Br2602   1.884       .  S
C2596      C2597   1.415       .  A
C2596     Br2601   1.919       .  S
C2597      C2598   1.438       .  A
C2598     Br2599   1.925       .  S
C2603      C2604   1.412       .  A
C2603      C2608   1.385       .  A
C2603     Br2610   1.921       .  S
C2604      C2605   1.434       .  A
C2605      C2606   1.436       .  A
C2605     Br2612   1.932       .  S
C2606      C2607   1.430       .  A
C2606     Br2611   1.924       .  S
C2607      C2608   1.406       .  A
C2608     Br2609   1.926       .  S
C2613      C2614   1.442       .  A
C2613      C2618   1.406       .  A
C2613     Br2620   1.954       .  S
C2614      C2615   1.426       .  A
C2615      C2616   1.425       .  A
C2615     Br2622   1.928       .  S
C2616      C2617   1.426       .  A
C2616     Br2621   1.941       .  S
C2617      C2618   1.412       .  A
C2618     Br2619   1.941       .  S
C2623      C2624   1.408       .  A
C2623      C2628   1.402       .  A
C2623     Br2630   1.922       .  S
C2624      C2625   1.411       .  A
C2625      C2626   1.405       .  A
C2625     Br2632   1.926       .  S
C2626      C2627   1.407       .  A
C2626     Br2631   1.927       .  S
C2627      C2628   1.406       .  A
C2628     Br2629   1.930       .  S
C2633      C2634   1.409       .  A
C2633      C2638   1.386       .  A
C2633     Br2640   1.918       .  S
C2634      C2635   1.427       .  A
C2635      C2636   1.432       .  A
C2635     Br2642   1.927       .  S
C2636      C2637   1.437       .  A
C2636     Br2641   1.929       .  S
C2637      C2638   1.412       .  A
C2638     Br2639   1.918       .  S
C2643      C2644   1.418       .  A
C2643      C2648   1.412       .  A
C2643     Br2650   1.935       .  S
C2644      C2645   1.418       .  A
C2645      C2646   1.419       .  A
C2645     Br2652   1.930       .  S
C2646      C2647   1.421       .  A
C2646     Br2651   1.932       .  S
C2647      C2648   1.420       .  A
C2648     Br2649   1.924       .  S
C2653      C2654   1.414       .  A
C2653      C2658   1.412   1_556  A
C2653     Br2660   1.922       .  S
C2654      C2655   1.416       .  A
C2655      C2656   1.406   1_556  A
C2655     Br2662   1.933       .  S
C2656      C2657   1.412       .  A
C2656     Br2661   1.934       .  S
C2657      C2658   1.407       .  A
C2658     Br2659   1.923       .  S
C2663      C2664   1.405       .  A
C2663      C2668   1.402       .  A
C2663     Br2670   1.928       .  S
C2664      C2665   1.407       .  A
C2665      C2666   1.407       .  A
C2665     Br2672   1.929       .  S
C2666      C2667   1.410       .  A
C2666     Br2671   1.928       .  S
C2667      C2668   1.411       .  A
C2668     Br2669   1.926       .  S
C2673      C2674   1.421       .  A
C2673      C2678   1.412       .  A
C2673     Br2680   1.935       .  S
C2674      C2675   1.420       .  A
C2675      C2676   1.422       .  A
C2675     Br2682   1.933       .  S
C2676      C2677   1.420       .  A
C2676     Br2681   1.922       .  S
C2677      C2678   1.409       .  A
C2678     Br2679   1.917       .  S
C2683      C2684   1.421       .  A
C2683      C2688   1.400       .  A
C2683     Br2690   1.917       .  S
C2684      C2685   1.438       .  A
C2685      C2686   1.411       .  A
C2685     Br2692   1.939       .  S
C2686      C2687   1.401       .  A
C2686     Br2691   1.937       .  S
C2687      C2688   1.404       .  A
C2688     Br2689   1.942       .  S
C2693      C2694   1.426       .  A
C2693      C2698   1.421       .  A
C2693     Br2700   1.935       .  S
C2694      C2695   1.411       .  A
C2695      C2696   1.411       .  A
C2695     Br2702   1.927       .  S
C2696      C2697   1.421       .  A
C2696     Br2701   1.937       .  S
C2697      C2698   1.417       .  A
C2698     Br2699   1.934       .  S
C2703      C2704   1.411       .  A
C2703      C2708   1.399       .  A
C2703     Br2710   1.939       .  S
C2704      C2705   1.408       .  A
C2705      C2706   1.413       .  A
C2705     Br2712   1.937       .  S
C2706      C2707   1.435       .  A
C2706     Br2711   1.944       .  S
C2707      C2708   1.408       .  A
C2708     Br2709   1.911       .  S
C2713      C2714   1.406       .  A
C2713      C2718   1.404       .  A
C2713     Br2720   1.925       .  S
C2714      C2715   1.405       .  A
C2715      C2716   1.399       .  A
C2715     Br2722   1.929       .  S
C2716      C2717   1.406       .  A
C2716     Br2721   1.929       .  S
C2717      C2718   1.404       .  A
C2718     Br2719   1.925       .  S
C2723      C2724   1.406       .  A
C2723      C2728   1.430       .  A
C2723     Br2730   1.927       .  S
C2724      C2725   1.387       .  A
C2725      C2726   1.391       .  A
C2725     Br2732   1.907       .  S
C2726      C2727   1.419       .  A
C2726     Br2731   1.897       .  S
C2727      C2728   1.437       .  A
C2728     Br2729   1.914       .  S
C2733      C2734   1.405       .  A
C2733      C2738   1.428       .  A
C2733     Br2740   1.927       .  S
C2734      C2735   1.384       .  A
C2735      C2736   1.390       .  A
C2735     Br2742   1.908       .  S
C2736      C2737   1.419       .  A
C2736     Br2741   1.903       .  S
C2737      C2738   1.436       .  A
C2738     Br2739   1.928       .  S
C2743      C2744   1.414       .  A
C2743      C2748   1.415       .  A
C2743     Br2750   1.931       .  S
C2744      C2745   1.421       .  A
C2745      C2746   1.405       .  A
C2745     Br2752   1.935       .  S
C2746      C2747   1.410       .  A
C2746     Br2751   1.934       .  S
C2747      C2748   1.417       .  A
C2748     Br2749   1.930       .  S
C2753      C2754   1.400       .  A
C2753      C2758   1.407       .  A
C2753     Br2760   1.908       .  S
C2754      C2755   1.408       .  A
C2755      C2756   1.420       .  A
C2755     Br2762   1.922       .  S
C2756      C2757   1.419       .  A
C2756     Br2761   1.920       .  S
C2757      C2758   1.405       .  A
C2758     Br2759   1.905       .  S
C2763      C2764   1.403       .  A
C2763      C2768   1.413       .  A
C2763     Br2770   1.917       .  S
C2764      C2765   1.408       .  A
C2765      C2766   1.414       .  A
C2765     Br2772   1.922       .  S
C2766      C2767   1.410       .  A
C2766     Br2771   1.915       .  S
C2767      C2768   1.409       .  A
C2768     Br2769   1.913       .  S
C2773      C2774   1.434       .  A
C2773      C2778   1.417       .  A
C2773     Br2780   1.931       .  S
C2774      C2775   1.408       .  A
C2775      C2776   1.378       .  A
C2775     Br2782   1.890       .  S
C2776      C2777   1.379       .  A
C2776     Br2781   1.906       .  S
C2777      C2778   1.402       .  A
C2778     Br2779   1.930       .  S
C2783      C2784   1.413       .  A
C2783      C2788   1.419       .  A
C2783     Br2790   1.930       .  S
C2784      C2785   1.415       .  A
C2785      C2786   1.405       .  A
C2785     Br2792   1.931       .  S
C2786      C2787   1.405       .  A
C2786     Br2791   1.916       .  S
C2787      C2788   1.426       .  A
C2788     Br2789   1.934       .  S
C2793      C2794   1.414       .  A
C2793      C2798   1.409       .  A
C2793     Br2800   1.930       .  S
C2794      C2795   1.415       .  A
C2795      C2796   1.405       .  A
C2795     Br2802   1.939       .  S
C2796      C2797   1.418       .  A
C2796     Br2801   1.936       .  S
C2797      C2798   1.405       .  A
C2798     Br2799   1.925       .  S
C2803      C2804   1.408       .  A
C2803      C2808   1.406       .  A
C2803     Br2810   1.933       .  S
C2804      C2805   1.419       .  A
C2805      C2806   1.413       .  A
C2805     Br2812   1.927       .  S
C2806      C2807   1.410       .  A
C2806     Br2811   1.930       .  S
C2807      C2808   1.421       .  A
C2808     Br2809   1.930       .  S
C2813      C2814   1.424       .  A
C2813      C2818   1.413       .  A
C2813     Br2820   1.939       .  S
C2814      C2815   1.419       .  A
C2815      C2816   1.424       .  A
C2815     Br2822   1.935       .  S
C2816      C2817   1.426       .  A
C2816     Br2821   1.923       .  S
C2817      C2818   1.411       .  A
C2818     Br2819   1.923       .  S
C2823      C2824   1.412       .  A
C2823      C2828   1.407       .  A
C2823     Br2830   1.934       .  S
C2824      C2825   1.412       .  A
C2825      C2826   1.415       .  A
C2825     Br2832   1.935       .  S
C2826      C2827   1.427       .  A
C2826     Br2831   1.929       .  S
C2827      C2828   1.414       .  A
C2828     Br2829   1.917       .  S
C2833      C2834   1.410       .  A
C2833      C2838   1.405       .  A
C2833     Br2840   1.926       .  S
C2834      C2835   1.407       .  A
C2835      C2836   1.404       .  A
C2835     Br2842   1.919       .  S
C2836      C2837   1.398   1_556  A
C2836     Br2841   1.916   1_556  S
C2837      C2838   1.401   1_554  A
C2838     Br2839   1.916       .  S
C2843      C2844   1.395       .  A
C2843      C2848   1.409       .  A
C2843     Br2850   1.923       .  S
C2844      C2845   1.404       .  A
C2845      C2846   1.417       .  A
C2845     Br2852   1.926       .  S
C2846      C2847   1.411       .  A
C2846     Br2851   1.917       .  S
C2847      C2848   1.413       .  A
C2848     Br2849   1.916       .  S
C2853      C2854   1.398       .  A
C2853      C2858   1.403       .  A
C2853     Br2860   1.916       .  S
C2854      C2855   1.407       .  A
C2855      C2856   1.423       .  A
C2855     Br2862   1.925       .  S
C2856      C2857   1.428       .  A
C2856     Br2861   1.929       .  S
C2857      C2858   1.409       .  A
C2858     Br2859   1.899       .  S
C2863      C2864   1.423       .  A
C2863      C2868   1.411       .  A
C2863     Br2870   1.933       .  S
C2864      C2865   1.411       .  A
C2865      C2866   1.417       .  A
C2865     Br2872   1.934       .  S
C2866      C2867   1.427       .  A
C2866     Br2871   1.932       .  S
C2867      C2868   1.413       .  A
C2868     Br2869   1.935       .  S
C2873      C2874   1.412       .  A
C2873      C2878   1.419       .  A
C2873     Br2880   1.928       .  S
C2874      C2875   1.400       .  A
C2875      C2876   1.413       .  A
C2875     Br2882   1.914       .  S
C2876      C2877   1.418       .  A
C2876     Br2881   1.920       .  S
C2877      C2878   1.412       .  A
C2878     Br2879   1.918       .  S
C2883      C2884   1.406       .  A
C2883      C2888   1.423       .  A
C2883     Br2890   1.917       .  S
C2884      C2885   1.400       .  A
C2885      C2886   1.408       .  A
C2885     Br2892   1.916       .  S
C2886      C2887   1.407       .  A
C2886     Br2891   1.913       .  S
C2887      C2888   1.420       .  A
C2888     Br2889   1.931       .  S
C2893      C2894   1.425       .  A
C2893      C2898   1.408       .  A
C2893     Br2900   1.929       .  S
C2894      C2895   1.418       .  A
C2895      C2896   1.416       .  A
C2895     Br2902   1.930       .  S
C2896      C2897   1.413       .  A
C2896     Br2901   1.930       .  S
C2897      C2898   1.408       .  A
C2898     Br2899   1.936       .  S
C2903      C2904   1.398       .  A
C2903      C2908   1.401       .  A
C2903     Br2910   1.915       .  S
C2904      C2905   1.390       .  A
C2905      C2906   1.395       .  A
C2905     Br2912   1.913       .  S
C2906      C2907   1.411       .  A
C2906     Br2911   1.905       .  S
C2907      C2908   1.410       .  A
C2908     Br2909   1.903       .  S
